data/pglib_opf_case1354_pegase_storage.m
%%%%%%%%%%%%%%%%%%%%%%%%%%%%%%%%%%%%%%%%%%%%%%%%%%%%%%%%%%%%%%%%%%%%%%%%%%%
%%%%                                                                  %%%%%
%%%%    IEEE PES Power Grid Library - Optimal Power Flow - v23.07     %%%%%
%%%%          (https://github.com/power-grid-lib/pglib-opf)           %%%%%
%%%%               Benchmark Group - Typical Operations               %%%%%
%%%%                         23 - July - 2023                         %%%%%
%%%%                                                                  %%%%%
%%%%%%%%%%%%%%%%%%%%%%%%%%%%%%%%%%%%%%%%%%%%%%%%%%%%%%%%%%%%%%%%%%%%%%%%%%%
%
%CASE1354PEGASE  Power flow data for medium part of European system.
%   Please see CASEFORMAT for details on the case file format.
%
%   This case accurately represents the size and complexity of part of the
%   European high voltage transmission network. The network contains 1,354
%   buses, 260 generators, and 1,991 branches and it operates at 380 and
%   220 kV. Please note that the data are fictitious and do not correspond
%   to real world data. They can thus be used to validate methods and tools
%   but should not be used for operation and planning of the European grid.
%
%   The data stems from the Pan European Grid Advanced Simulation and State
%   Estimation (PEGASE) project, part of the 7th Framework Program of the
%   European Union (http://www.fp7-pegase.com/). When publishing results
%   based on this data, please cite:
%
%     S. Fliscounakis, P. Panciatici, F. Capitanescu, and L. Wehenkel,
%     "Contingency ranking with respect to overloads in very large power
%     systems taking into account uncertainty, preventive and corrective
%     actions", Power Systems, IEEE Trans. on, (28)4:4909-4917, 2013.
%     http://dx.doi.org/10.1109/TPWRS.2013.2251015
%
%   Remarks:
%
%   1. Line flow limits are 100 MVA (at 1 p.u. voltage) lower than the
%   current flow limits found in PEGASE data.
%
%   2. PEGASE data contains asymmetric shunt conductance and susceptance in
%   the PI transmission line model of branches. Thus total line charging
%   susceptance of branches is set to 0 p.u. and the nodal representation
%   of shunt condutance and susceptance is used. As a result, power flow
%   equations are left unchanged compared with original PEGASE data.
%   However, line flow constraints in the optimal flow problem are
%   modified.
%
%   3. Identical linear costs are used for all generators to form a loss
%   minimizing OPF objective function.
%
%   4. Since some parts of the network are aggregated, some generators
%   (e.g. with negative PMIN) represent aggregations of multiple loads
%   and generators.
%
%   Cédric Josz, Stéphane Fliscounakis, Jean Maeght, Patrick Panciatici
%   firstname.lastname@rte-france.com
%   Réseau de Transport d'Electricité (French Transmission System Operator)
%   Département Expertise Système, Immeuble "Le Colbert"
%   9 rue de la Porte de Buc, 78000 Versailles Cedex, France
%   March 18th, 2015
%
%   Copyright (c) 2015 by Cédric Josz, Stéphane Fliscounakis, Jean Maeght,
%   and Patrick Panciatici
%   Licensed under the Creative Commons Attribution 4.0 International license,
%   http://creativecommons.org/licenses/by/4.0/
%
% Modified to have additional storage capacity and increased gencost
function mpc = pglib_opf_case1354_pegase
mpc.version = '2';
mpc.baseMVA = 100.0;

%% bus data
%	bus_i	type	Pd	Qd	Gs	Bs	area	Vm	Va	baseKV	zone	Vmax	Vmin
mpc.bus = [
	3	 1	 151.0	 48.8	 0.0	 4.69	 0	    1.00000	    0.00000	 220.0	 5	    1.10000	    0.90000;
	4	 1	 171.41	 23.4	 0.0	 2.1	 0	    1.00000	    0.00000	 220.0	 5	    1.10000	    0.90000;
	10	 1	 134.0	 24.7	 0.0	 12.44	 0	    1.00000	    0.00000	 220.0	 5	    1.10000	    0.90000;
	21	 1	 161.2	 39.3	 0.0	 30.71	 0	    1.00000	    0.00000	 220.0	 5	    1.10000	    0.90000;
	22	 1	 0.0	 -0.0	 0.0	 0.85	 0	    1.00000	    0.00000	 220.0	 5	    1.10000	    0.90000;
	26	 1	 167.3	 54.8	 0.0	 110.54	 0	    1.00000	    0.00000	 380.0	 5	    1.10000	    0.90000;
	29	 1	 152.9	 49.4	 0.0	 27.65	 0	    1.00000	    0.00000	 380.0	 5	    1.10000	    0.90000;
	44	 1	 -0.0	 0.0	 0.0	 7.27	 0	    1.00000	    0.00000	 220.0	 5	    1.10000	    0.90000;
	53	 1	 48.65	 16.1	 0.0	 7.14	 0	    1.00000	    0.00000	 220.0	 5	    1.10000	    0.90000;
	58	 1	 0.0	 0.0	 0.0	 2.31	 0	    1.00000	    0.00000	 380.0	 5	    1.10000	    0.90000;
	59	 1	 119.2	 20.7	 0.0	 3.31	 0	    1.00000	    0.00000	 220.0	 5	    1.10000	    0.90000;
	90	 1	 363.25	 115.39	 0.0	 3.95	 0	    1.00000	    0.00000	 220.0	 5	    1.10000	    0.90000;
	96	 1	 -8.4	 28.66	 0.0	 3.49	 0	    1.00000	    0.00000	 220.0	 5	    1.10000	    0.90000;
	113	 1	 -0.0	 -0.0	 0.0	 6.532711	 0	    1.00000	    0.00000	 380.0	 5	    1.10000	    0.90000;
	115	 1	 0.0	 -0.0	 0.0	 4.21	 0	    1.00000	    0.00000	 220.0	 5	    1.10000	    0.90000;
	118	 1	 704.53	 -35.33	 0.0	 13.102834	 0	    1.00000	    0.00000	 380.0	 5	    1.10000	    0.90000;
	124	 2	 0.0	 0.0	 0.0	 0.0	 0	    1.00000	    0.00000	 220.0	 5	    1.10000	    0.90000;
	128	 1	 23.73	 12.7	 0.0	 0.52	 0	    1.00000	    0.00000	 220.0	 5	    1.10000	    0.90000;
	145	 1	 38.34	 5.6	 0.0	 7.64	 0	    1.00000	    0.00000	 220.0	 5	    1.10000	    0.90000;
	148	 1	 32.34	 12.0	 0.0	 6.1	 0	    1.00000	    0.00000	 220.0	 5	    1.10000	    0.90000;
	150	 2	 0.0	 0.0	 0.0	 0.0	 0	    1.00000	    0.00000	 220.0	 5	    1.10000	    0.90000;
	163	 1	 147.76	 32.73	 0.0	 8.34	 0	    1.00000	    0.00000	 220.0	 5	    1.10000	    0.90000;
	171	 1	 100.8	 13.2	 0.0	 5.24	 0	    1.00000	    0.00000	 220.0	 5	    1.10000	    0.90000;
	174	 1	 370.5	 -17.0	 0.0	 9.91	 0	    1.00000	    0.00000	 220.0	 5	    1.10000	    0.90000;
	184	 1	 -0.0	 -0.0	 0.0	 2.42	 0	    1.00000	    0.00000	 220.0	 5	    1.10000	    0.90000;
	188	 1	 36.84	 13.9	 0.0	 3.3	 0	    1.00000	    0.00000	 220.0	 5	    1.10000	    0.90000;
	195	 1	 73.14	 21.55	 0.0	 8.52	 0	    1.00000	    0.00000	 220.0	 5	    1.10000	    0.90000;
	196	 1	 0.0	 -0.0	 0.0	 12.48	 0	    1.00000	    0.00000	 220.0	 5	    1.10000	    0.90000;
	198	 1	 39.74	 11.8	 0.0	 1.44	 0	    1.00000	    0.00000	 220.0	 5	    1.10000	    0.90000;
	207	 1	 321.98	 84.4	 0.0	 1.34	 0	    1.00000	    0.00000	 220.0	 5	    1.10000	    0.90000;
	216	 1	 155.6	 54.7	 0.0	 2.21	 0	    1.00000	    0.00000	 220.0	 5	    1.10000	    0.90000;
	217	 1	 105.2	 0.1	 0.0	 7.36	 0	    1.00000	    0.00000	 220.0	 5	    1.10000	    0.90000;
	218	 1	 69.83	 15.12	 0.0	 2.23	 0	    1.00000	    0.00000	 220.0	 5	    1.10000	    0.90000;
	221	 2	 0.0	 0.0	 0.0	 0.0	 0	    1.00000	    0.00000	 380.0	 5	    1.10000	    0.90000;
	225	 1	 0.0	 0.0	 0.0	 1.15	 0	    1.00000	    0.00000	 220.0	 5	    1.10000	    0.90000;
	280	 1	 119.6	 29.6	 0.0	 5.34	 0	    1.00000	    0.00000	 220.0	 5	    1.10000	    0.90000;
	283	 1	 27.33	 11.9	 0.0	 1.17	 0	    1.00000	    0.00000	 220.0	 5	    1.10000	    0.90000;
	292	 1	 13.82	 1.4	 0.0	 0.7	 0	    1.00000	    0.00000	 220.0	 5	    1.10000	    0.90000;
	305	 1	 103.0	 12.0	 0.0	 0.63	 0	    1.00000	    0.00000	 220.0	 5	    1.10000	    0.90000;
	306	 1	 -0.0	 0.0	 0.0	 4.76	 0	    1.00000	    0.00000	 220.0	 5	    1.10000	    0.90000;
	314	 1	 163.1	 46.3	 0.0	 10.6	 0	    1.00000	    0.00000	 220.0	 5	    1.10000	    0.90000;
	333	 1	 524.5	 43.0	 0.0	 6.85	 0	    1.00000	    0.00000	 220.0	 5	    1.10000	    0.90000;
	338	 2	 0.0	 0.0	 0.0	 0.0	 0	    1.00000	    0.00000	 220.0	 5	    1.10000	    0.90000;
	346	 1	 197.5	 48.3	 0.0	 0.71	 0	    1.00000	    0.00000	 220.0	 5	    1.10000	    0.90000;
	350	 1	 110.4	 26.2	 0.0	 5.62	 0	    1.00000	    0.00000	 220.0	 5	    1.10000	    0.90000;
	352	 2	 0.0	 0.0	 0.0	 0.0	 0	    1.00000	    0.00000	 380.0	 5	    1.10000	    0.90000;
	367	 1	 65.17	 -51.5	 0.0	 4.85	 0	    1.00000	    0.00000	 220.0	 5	    1.10000	    0.90000;
	401	 1	 56.5	 36.29	 0.0	 3.08	 0	    1.00000	    0.00000	 220.0	 5	    1.10000	    0.90000;
	408	 1	 129.1	 7.4	 0.0	 0.04	 0	    1.00000	    0.00000	 220.0	 5	    1.10000	    0.90000;
	410	 1	 170.89	 50.38	 0.0	 6.44	 0	    1.00000	    0.00000	 220.0	 5	    1.10000	    0.90000;
	413	 2	 0.0	 0.0	 0.0	 0.0	 0	    1.00000	    0.00000	 220.0	 5	    1.10000	    0.90000;
	416	 1	 70.68	 13.5	 0.0	 6.96	 0	    1.00000	    0.00000	 220.0	 5	    1.10000	    0.90000;
	426	 1	 123.1	 6.5	 0.0	 3.25	 0	    1.00000	    0.00000	 220.0	 5	    1.10000	    0.90000;
	432	 1	 -0.0	 -0.0	 0.0	 68.517663	 0	    1.00000	    0.00000	 380.0	 5	    1.10000	    0.90000;
	444	 1	 0.0	 -0.0	 0.0	 2.45	 0	    1.00000	    0.00000	 220.0	 5	    1.10000	    0.90000;
	449	 1	 0.0	 0.0	 0.0	 29.42	 0	    1.00000	    0.00000	 380.0	 5	    1.10000	    0.90000;
	453	 2	 0.0	 0.0	 0.0	 0.0	 0	    1.00000	    0.00000	 380.0	 5	    1.10000	    0.90000;
	455	 1	 274.32	 5.66	 0.0	 13.24	 0	    1.00000	    0.00000	 220.0	 5	    1.10000	    0.90000;
	490	 1	 20.52	 4.0	 0.0	 2.77	 0	    1.00000	    0.00000	 220.0	 5	    1.10000	    0.90000;
	500	 1	 144.4	 35.5	 0.0	 7.66	 0	    1.00000	    0.00000	 220.0	 5	    1.10000	    0.90000;
	502	 1	 -0.0	 0.0	 0.0	 1.96	 0	    1.00000	    0.00000	 220.0	 5	    1.10000	    0.90000;
	506	 1	 -0.0	 0.0	 0.0	 0.4	 0	    1.00000	    0.00000	 380.0	 5	    1.10000	    0.90000;
	513	 1	 57.46	 17.1	 0.0	 1.61	 0	    1.00000	    0.00000	 220.0	 5	    1.10000	    0.90000;
	516	 2	 0.0	 0.0	 0.0	 0.0	 0	    1.00000	    0.00000	 220.0	 5	    1.10000	    0.90000;
	520	 1	 118.5	 20.4	 0.0	 2.57	 0	    1.00000	    0.00000	 220.0	 5	    1.10000	    0.90000;
	549	 1	 0.0	 -0.0	 0.0	 5.15	 0	    1.00000	    0.00000	 220.0	 5	    1.10000	    0.90000;
	554	 1	 0.0	 -0.0	 0.0	 1.97	 0	    1.00000	    0.00000	 220.0	 5	    1.10000	    0.90000;
	556	 1	 16.52	 9.0	 0.0	 1.17	 0	    1.00000	    0.00000	 220.0	 5	    1.10000	    0.90000;
	561	 1	 0.0	 -0.0	 0.0	 0.32	 0	    1.00000	    0.00000	 220.0	 5	    1.10000	    0.90000;
	564	 2	 0.0	 0.0	 0.0	 0.0	 0	    1.00000	    0.00000	 220.0	 5	    1.10000	    0.90000;
	575	 1	 0.0	 -0.0	 0.0	 0.67	 0	    1.00000	    0.00000	 220.0	 5	    1.10000	    0.90000;
	583	 2	 0.0	 0.0	 0.0	 0.0	 0	    1.00000	    0.00000	 220.0	 5	    1.10000	    0.90000;
	594	 1	 67.57	 17.0	 0.0	 5.75	 0	    1.00000	    0.00000	 220.0	 5	    1.10000	    0.90000;
	601	 1	 140.6	 42.6	 0.0	 5.71	 0	    1.00000	    0.00000	 220.0	 5	    1.10000	    0.90000;
	604	 1	 33.24	 4.4	 0.0	 24.54	 0	    1.00000	    0.00000	 380.0	 5	    1.10000	    0.90000;
	608	 1	 150.9	 10.4	 0.0	 4.77	 0	    1.00000	    0.00000	 220.0	 5	    1.10000	    0.90000;
	609	 1	 -0.0	 -0.0	 0.0	 5.67	 0	    1.00000	    0.00000	 220.0	 5	    1.10000	    0.90000;
	615	 2	 0.0	 0.0	 0.0	 0.0	 0	    1.00000	    0.00000	 220.0	 5	    1.10000	    0.90000;
	616	 2	 0.0	 0.0	 0.0	 0.0	 0	    1.00000	    0.00000	 220.0	 5	    1.10000	    0.90000;
	619	 1	 72.88	 14.4	 0.0	 2.96	 0	    1.00000	    0.00000	 220.0	 5	    1.10000	    0.90000;
	639	 2	 0.0	 0.0	 0.0	 0.0	 0	    1.00000	    0.00000	 220.0	 5	    1.10000	    0.90000;
	641	 1	 45.32	 18.5	 0.0	 0.74	 0	    1.00000	    0.00000	 220.0	 5	    1.10000	    0.90000;
	658	 1	 258.4	 66.7	 0.0	 5.87	 0	    1.00000	    0.00000	 220.0	 5	    1.10000	    0.90000;
	661	 1	 -0.0	 -0.0	 0.0	 0.6	 0	    1.00000	    0.00000	 380.0	 5	    1.10000	    0.90000;
	666	 1	 -5.61	 -2.79	 0.0	 150.93	 0	    1.00000	    0.00000	 380.0	 5	    1.10000	    0.90000;
	678	 1	 232.1	 89.8	 0.0	 0.09	 0	    1.00000	    0.00000	 220.0	 5	    1.10000	    0.90000;
	682	 2	 0.0	 0.0	 0.0	 0.0	 0	    1.00000	    0.00000	 220.0	 5	    1.10000	    0.90000;
	687	 1	 -0.0	 0.0	 0.0	 5.6	 0	    1.00000	    0.00000	 220.0	 5	    1.10000	    0.90000;
	707	 1	 83.99	 21.2	 0.0	 5.36	 0	    1.00000	    0.00000	 220.0	 5	    1.10000	    0.90000;
	718	 1	 135.11	 41.0	 0.0	 5.31	 0	    1.00000	    0.00000	 220.0	 5	    1.10000	    0.90000;
	720	 1	 -0.0	 -0.0	 0.0	 23.554121	 0	    1.00000	    0.00000	 380.0	 5	    1.10000	    0.90000;
	726	 1	 400.3	 189.9	 0.0	 0.53	 0	    1.00000	    0.00000	 220.0	 5	    1.10000	    0.90000;
	742	 1	 0.0	 -0.0	 0.0	 2.83	 0	    1.00000	    0.00000	 220.0	 5	    1.10000	    0.90000;
	747	 1	 69.58	 16.0	 0.0	 3.03	 0	    1.00000	    0.00000	 220.0	 5	    1.10000	    0.90000;
	749	 2	 0.0	 0.0	 0.0	 0.0	 0	    1.00000	    0.00000	 220.0	 5	    1.10000	    0.90000;
	750	 1	 -0.0	 -0.0	 0.0	 18.63	 0	    1.00000	    0.00000	 220.0	 5	    1.10000	    0.90000;
	757	 2	 0.0	 0.0	 0.0	 0.0	 0	    1.00000	    0.00000	 380.0	 5	    1.10000	    0.90000;
	766	 1	 -0.0	 0.0	 0.0	 7.85	 0	    1.00000	    0.00000	 220.0	 5	    1.10000	    0.90000;
	769	 1	 152.57	 40.0	 0.0	 6.12	 0	    1.00000	    0.00000	 220.0	 5	    1.10000	    0.90000;
	772	 1	 343.9	 141.9	 0.0	 5.55	 0	    1.00000	    0.00000	 220.0	 5	    1.10000	    0.90000;
	776	 2	 0.0	 0.0	 0.0	 0.0	 0	    1.00000	    0.00000	 220.0	 5	    1.10000	    0.90000;
	778	 2	 0.0	 0.0	 0.0	 0.0	 0	    1.00000	    0.00000	 220.0	 5	    1.10000	    0.90000;
	789	 1	 -0.0	 -0.0	 0.0	 6.63	 0	    1.00000	    0.00000	 220.0	 5	    1.10000	    0.90000;
	795	 2	 0.0	 0.0	 0.0	 0.0	 0	    1.00000	    0.00000	 220.0	 5	    1.10000	    0.90000;
	800	 1	 50.56	 18.0	 0.0	 0.11	 0	    1.00000	    0.00000	 220.0	 5	    1.10000	    0.90000;
	803	 2	 0.0	 0.0	 0.0	 0.0	 0	    1.00000	    0.00000	 220.0	 5	    1.10000	    0.90000;
	804	 1	 -0.0	 -0.0	 0.0	 7.26	 0	    1.00000	    0.00000	 220.0	 5	    1.10000	    0.90000;
	805	 1	 124.5	 29.6	 0.0	 15.4	 0	    1.00000	    0.00000	 220.0	 5	    1.10000	    0.90000;
	809	 1	 0.0	 -0.0	 0.0	 58.088687	 0	    1.00000	    0.00000	 380.0	 5	    1.10000	    0.90000;
	819	 1	 0.0	 -0.0	 0.0	 0.22	 0	    1.00000	    0.00000	 220.0	 5	    1.10000	    0.90000;
	823	 2	 0.0	 0.0	 0.0	 0.0	 0	    1.00000	    0.00000	 380.0	 5	    1.10000	    0.90000;
	839	 1	 -0.0	 -0.0	 0.0	 8.17514	 0	    1.00000	    0.00000	 380.0	 5	    1.10000	    0.90000;
	851	 2	 0.0	 0.0	 0.0	 0.0	 0	    1.00000	    0.00000	 220.0	 5	    1.10000	    0.90000;
	858	 2	 0.0	 0.0	 0.0	 0.0	 0	    1.00000	    0.00000	 380.0	 5	    1.10000	    0.90000;
	870	 1	 110.0	 3.4	 0.0	 11.95	 0	    1.00000	    0.00000	 220.0	 5	    1.10000	    0.90000;
	871	 1	 108.89	 -21.76	 0.0	 3.72	 0	    1.00000	    0.00000	 220.0	 5	    1.10000	    0.90000;
	883	 1	 192.5	 78.3	 0.0	 6.65	 0	    1.00000	    0.00000	 220.0	 5	    1.10000	    0.90000;
	891	 2	 0.0	 0.0	 0.0	 0.0	 0	    1.00000	    0.00000	 380.0	 5	    1.10000	    0.90000;
	892	 1	 -0.0	 -0.0	 0.0	 9.1	 0	    1.00000	    0.00000	 220.0	 5	    1.10000	    0.90000;
	900	 1	 0.0	 0.0	 0.0	 0.15	 0	    1.00000	    0.00000	 220.0	 5	    1.10000	    0.90000;
	903	 1	 82.69	 20.1	 0.0	 1.36	 0	    1.00000	    0.00000	 220.0	 5	    1.10000	    0.90000;
	905	 1	 631.71	 -54.16	 0.0	 7.534129	 0	    1.00000	    0.00000	 380.0	 5	    1.10000	    0.90000;
	907	 1	 -0.0	 -0.0	 0.0	 0.05	 0	    1.00000	    0.00000	 220.0	 5	    1.10000	    0.90000;
	908	 1	 125.9	 -0.5	 0.0	 0.21	 0	    1.00000	    0.00000	 220.0	 5	    1.10000	    0.90000;
	920	 1	 34.44	 8.5	 0.0	 1.11	 0	    1.00000	    0.00000	 220.0	 5	    1.10000	    0.90000;
	923	 1	 62.07	 14.7	 0.0	 4.84	 0	    1.00000	    0.00000	 220.0	 5	    1.10000	    0.90000;
	933	 1	 -0.0	 0.0	 0.0	 22.75	 0	    1.00000	    0.00000	 220.0	 5	    1.10000	    0.90000;
	935	 1	 -0.0	 0.0	 0.0	 9.46	 0	    1.00000	    0.00000	 220.0	 5	    1.10000	    0.90000;
	953	 1	 108.7	 -12.15	 0.0	 37.11	 0	    1.00000	    0.00000	 380.0	 5	    1.10000	    0.90000;
	954	 1	 66.27	 13.6	 0.0	 0.67	 0	    1.00000	    0.00000	 220.0	 5	    1.10000	    0.90000;
	960	 1	 -0.0	 -0.0	 0.0	 108.728602	 0	    1.00000	    0.00000	 380.0	 5	    1.10000	    0.90000;
	964	 1	 88.5	 16.5	 0.0	 146.44	 0	    1.00000	    0.00000	 380.0	 5	    1.10000	    0.90000;
	972	 2	 0.0	 0.0	 0.0	 0.0	 0	    1.00000	    0.00000	 380.0	 5	    1.30000	    0.70000;
	980	 1	 14.71	 4.6	 0.0	 7.88	 0	    1.00000	    0.00000	 220.0	 5	    1.10000	    0.90000;
	1001	 2	 0.0	 0.0	 0.0	 0.0	 0	    1.00000	    0.00000	 220.0	 5	    1.10000	    0.90000;
	1002	 2	 0.0	 0.0	 0.0	 0.0	 0	    1.00000	    0.00000	 220.0	 5	    1.10000	    0.90000;
	1005	 1	 0.0	 0.0	 0.0	 0.81	 0	    1.00000	    0.00000	 220.0	 5	    1.10000	    0.90000;
	1015	 1	 44.55	 0.0	 0.0	 4.78	 0	    1.00000	    0.00000	 220.0	 5	    1.10000	    0.90000;
	1026	 1	 201.4	 53.0	 0.0	 9.67	 0	    1.00000	    0.00000	 220.0	 5	    1.10000	    0.90000;
	1027	 1	 -5.91	 -2.33	 0.0	 30.393595	 0	    1.00000	    0.00000	 380.0	 5	    1.10000	    0.90000;
	1033	 1	 26.33	 5.3	 0.0	 4.31	 0	    1.00000	    0.00000	 220.0	 5	    1.10000	    0.90000;
	1035	 1	 382.5	 57.9	 0.0	 8.16	 0	    1.00000	    0.00000	 220.0	 5	    1.10000	    0.90000;
	1039	 1	 34.64	 -0.0	 0.0	 0.91	 0	    1.00000	    0.00000	 220.0	 5	    1.10000	    0.90000;
	1040	 1	 31.94	 8.8	 0.0	 3.79	 0	    1.00000	    0.00000	 220.0	 5	    1.10000	    0.90000;
	1043	 2	 0.0	 0.0	 0.0	 0.0	 0	    1.00000	    0.00000	 380.0	 5	    1.10000	    0.90000;
	1051	 1	 -0.0	 0.0	 0.0	 3.79	 0	    1.00000	    0.00000	 220.0	 5	    1.10000	    0.90000;
	1077	 1	 -0.0	 0.0	 0.0	 0.1	 0	    1.00000	    0.00000	 220.0	 5	    1.10000	    0.90000;
	1078	 1	 -0.0	 -0.0	 0.0	 4.74	 0	    1.00000	    0.00000	 220.0	 5	    1.10000	    0.90000;
	1081	 1	 277.86	 58.95	 0.0	 182.880644	 0	    1.00000	    0.00000	 380.0	 5	    1.10000	    0.90000;
	1083	 2	 0.0	 0.0	 0.0	 0.0	 0	    1.00000	    0.00000	 220.0	 5	    1.10000	    0.90000;
	1090	 1	 56.06	 18.7	 0.0	 4.24	 0	    1.00000	    0.00000	 220.0	 5	    1.10000	    0.90000;
	1093	 2	 0.0	 0.0	 0.0	 0.0	 0	    1.00000	    0.00000	 380.0	 5	    1.10000	    0.90000;
	1096	 1	 0.0	 -0.0	 0.0	 0.16	 0	    1.00000	    0.00000	 220.0	 5	    1.10000	    0.90000;
	1100	 2	 0.0	 0.0	 0.0	 0.0	 0	    1.00000	    0.00000	 220.0	 5	    1.10000	    0.90000;
	1101	 1	 -0.0	 -0.0	 0.0	 2.05	 0	    1.00000	    0.00000	 220.0	 5	    1.10000	    0.90000;
	1102	 2	 0.0	 0.0	 0.0	 0.0	 0	    1.00000	    0.00000	 220.0	 5	    1.10000	    0.90000;
	1105	 1	 29.83	 7.3	 0.0	 6.49	 0	    1.00000	    0.00000	 220.0	 5	    1.10000	    0.90000;
	1111	 1	 0.0	 0.0	 0.0	 1.1	 0	    1.00000	    0.00000	 220.0	 5	    1.10000	    0.90000;
	1129	 1	 190.47	 55.03	 0.0	 6.7	 0	    1.00000	    0.00000	 220.0	 5	    1.10000	    0.90000;
	1136	 1	 16.22	 2.0	 0.0	 0.71	 0	    1.00000	    0.00000	 220.0	 5	    1.10000	    0.90000;
	1137	 1	 -0.0	 -0.0	 0.0	 0.05	 0	    1.00000	    0.00000	 220.0	 5	    1.10000	    0.90000;
	1146	 1	 32.84	 -0.0	 0.0	 1.41	 0	    1.00000	    0.00000	 220.0	 5	    1.10000	    0.90000;
	1151	 1	 -0.0	 -0.0	 0.0	 18.82	 0	    1.00000	    0.00000	 220.0	 5	    1.10000	    0.90000;
	1153	 1	 12.41	 3.9	 0.0	 2.23	 0	    1.00000	    0.00000	 220.0	 5	    1.10000	    0.90000;
	1156	 1	 65.67	 24.0	 0.0	 9.95	 0	    1.00000	    0.00000	 220.0	 5	    1.10000	    0.90000;
	1159	 1	 112.4	 13.0	 0.0	 3.99	 0	    1.00000	    0.00000	 220.0	 5	    1.10000	    0.90000;
	1172	 1	 -0.0	 -0.0	 0.0	 2.3	 0	    1.00000	    0.00000	 220.0	 5	    1.10000	    0.90000;
	1179	 1	 86.6	 23.4	 0.0	 0.39	 0	    1.00000	    0.00000	 220.0	 5	    1.10000	    0.90000;
	1183	 1	 199.4	 -19.9	 0.0	 6.68	 0	    1.00000	    0.00000	 220.0	 5	    1.10000	    0.90000;
	1187	 1	 67.57	 21.2	 0.0	 5.71	 0	    1.00000	    0.00000	 220.0	 5	    1.10000	    0.90000;
	1188	 1	 30.93	 6.6	 0.0	 9.09	 0	    1.00000	    0.00000	 220.0	 5	    1.10000	    0.90000;
	1194	 1	 129.6	 13.3	 0.0	 13.98	 0	    1.00000	    0.00000	 380.0	 5	    1.10000	    0.90000;
	1198	 1	 0.0	 0.0	 0.0	 30.637696	 0	    1.00000	    0.00000	 380.0	 5	    1.10000	    0.90000;
	1201	 1	 114.1	 23.5	 0.0	 1.08	 0	    1.00000	    0.00000	 220.0	 5	    1.10000	    0.90000;
	1216	 1	 0.0	 0.0	 0.0	 4.93	 0	    1.00000	    0.00000	 220.0	 5	    1.10000	    0.90000;
	1233	 1	 0.0	 -0.0	 0.0	 1.72	 0	    1.00000	    0.00000	 220.0	 5	    1.10000	    0.90000;
	1234	 1	 71.78	 17.9	 0.0	 1.96	 0	    1.00000	    0.00000	 220.0	 5	    1.10000	    0.90000;
	1237	 2	 0.0	 0.0	 0.0	 0.0	 0	    1.00000	    0.00000	 380.0	 5	    1.30000	    0.70000;
	1248	 1	 0.0	 0.0	 0.0	 1.17	 0	    1.00000	    0.00000	 220.0	 5	    1.10000	    0.90000;
	1249	 1	 348.93	 26.47	 0.0	 9.36	 0	    1.00000	    0.00000	 380.0	 5	    1.10000	    0.90000;
	1251	 2	 0.0	 0.0	 0.0	 0.0	 0	    1.00000	    0.00000	 380.0	 5	    1.10000	    0.90000;
	1262	 1	 -0.0	 0.0	 0.0	 10.73	 0	    1.00000	    0.00000	 220.0	 5	    1.10000	    0.90000;
	1265	 1	 173.0	 -21.3	 0.0	 5.93	 0	    1.00000	    0.00000	 220.0	 5	    1.10000	    0.90000;
	1275	 1	 52.46	 2.9	 0.0	 0.35	 0	    1.00000	    0.00000	 220.0	 5	    1.10000	    0.90000;
	1295	 2	 0.0	 0.0	 0.0	 0.0	 0	    1.00000	    0.00000	 220.0	 5	    1.10000	    0.90000;
	1301	 1	 479.0	 99.2	 0.0	 10.68	 0	    1.00000	    0.00000	 220.0	 5	    1.10000	    0.90000;
	1305	 1	 -0.0	 -0.0	 0.0	 4.34	 0	    1.00000	    0.00000	 220.0	 5	    1.10000	    0.90000;
	1311	 1	 37.94	 15.2	 0.0	 35.31	 0	    1.00000	    0.00000	 380.0	 5	    1.10000	    0.90000;
	1326	 1	 0.0	 0.0	 0.0	 0.98	 0	    1.00000	    0.00000	 220.0	 5	    1.10000	    0.90000;
	1334	 1	 0.0	 0.0	 0.0	 0.59	 0	    1.00000	    0.00000	 220.0	 5	    1.10000	    0.90000;
	1341	 2	 0.0	 0.0	 0.0	 0.0	 0	    1.00000	    0.00000	 220.0	 5	    1.10000	    0.90000;
	1343	 1	 -0.0	 -0.0	 0.0	 58.3	 0	    1.00000	    0.00000	 380.0	 5	    1.10000	    0.90000;
	1354	 2	 0.0	 0.0	 0.0	 0.0	 0	    1.00000	    0.00000	 220.0	 5	    1.10000	    0.90000;
	1355	 1	 -3.29	 -1.32	 0.0	 190.704588	 0	    1.00000	    0.00000	 380.0	 5	    1.10000	    0.90000;
	1364	 1	 40.85	 14.5	 0.0	 0.59	 0	    1.00000	    0.00000	 220.0	 5	    1.10000	    0.90000;
	1380	 1	 145.2	 21.4	 0.0	 1.09	 0	    1.00000	    0.00000	 220.0	 5	    1.10000	    0.90000;
	1394	 1	 30.93	 7.6	 0.0	 4.69	 0	    1.00000	    0.00000	 220.0	 5	    1.10000	    0.90000;
	1397	 1	 0.0	 -0.0	 0.0	 2.14	 0	    1.00000	    0.00000	 220.0	 5	    1.10000	    0.90000;
	1398	 1	 196.7	 44.2	 0.0	 0.1	 0	    1.00000	    0.00000	 220.0	 5	    1.10000	    0.90000;
	1401	 1	 11.91	 2.9	 0.0	 5.27	 0	    1.00000	    0.00000	 220.0	 5	    1.10000	    0.90000;
...
];

%% generator data
%	bus	Pg	Qg	Qmax	Qmin	Vg	mBase	status	Pmax	Pmin
mpc.gen = [
	124	 666.665	 133.865	 440.32	 -172.59	 1.0	 100.0	 1	 1000.0	 333.33; % COW
	150	 80.0	 27.275	 77.09	 -22.54	 1.0	 100.0	 1	 160.0	 0.0; % NG
	221	 -53.59	 59.31	 183.92	 -65.3	 1.0	 100.0	 1	 100.0	 -207.18; % COW
	338	 60.0	 18.19	 55.54	 -19.16	 1.0	 100.0	 1	 120.0	 0.0; % NG
	352	 1333.335	 314.335	 926.35	 -297.68	 1.0	 100.0	 1	 2000.0	 666.67; % COW
	413	 140.0	 37.14	 124.12	 -49.84	 1.0	 100.0	 1	 280.0	 0.0; % NG
	453	 270.0	 91.415	 257.23	 -74.4	 1.0	 100.0	 1	 540.0	 0.0; % NG
	516	 400.0	 77.56	 261.79	 -106.67	 1.0	 100.0	 1	 600.0	 200.0; % NUC
	564	 15.555	 -0.44	 18.47	 -19.35	 1.0	 100.0	 1	 100.0	 -68.89; % COW
	583	 -130.0	 5.425	 17.88	 -7.03	 1.0	 100.0	 1	 100.0	 -360.0; % NG
	615	 20.0	 4.65	 17.09	 -7.79	 1.0	 100.0	 1	 40.0	 0.0; % NG
	616	 320.0	 68.37	 217.9	 -81.16	 1.0	 100.0	 1	 480.0	 160.0; % NG
	639	 19.2	 48.31	 135.52	 -38.9	 1.0	 100.0	 1	 100.0	 -61.6; % NG
	682	 40.0	 13.855	 38.77	 -11.06	 1.0	 100.0	 1	 80.0	 0.0; % NG
	749	 120.0	 30.925	 105.69	 -43.84	 1.0	 100.0	 1	 240.0	 0.0; % COW
	757	 60.0	 13.945	 51.3	 -23.41	 1.0	 100.0	 1	 120.0	 0.0; % NG
	776	 -24.265	 5.715	 18.16	 -6.73	 1.0	 100.0	 1	 100.0	 -148.53; % NG
	778	 16.79	 1.505	 12.37	 -9.36	 1.0	 100.0	 1	 33.58	 0.0; % NG
	795	 40.0	 11.855	 36.75	 -13.04	 1.0	 100.0	 1	 80.0	 0.0; % NG
	803	 -9.465	 24.245	 74.03	 -25.54	 1.0	 100.0	 1	 100.0	 -118.93; % COW
	823	 1333.335	 314.185	 926.68	 -298.31	 1.0	 100.0	 1	 2000.0	 666.67; % COW
	851	 100.0	 34.415	 96.64	 -27.81	 1.0	 100.0	 1	 200.0	 0.0; % COW
	858	 666.665	 134.26	 440.67	 -172.15	 1.0	 100.0	 1	 1000.0	 333.33; % COW
	891	 1600.0	 361.75	 1097.41	 -373.91	 1.0	 100.0	 1	 2400.0	 800.0; % COW
	972	 1333.335	 321.605	 934.73	 -291.52	 1.0	 100.0	 1	 2000.0	 666.67; % COW
	1001	 60.0	 17.605	 55.02	 -19.81	 1.0	 100.0	 1	 120.0	 0.0; % NG
	1002	 100.0	 27.2	 89.55	 -35.15	 1.0	 100.0	 1	 200.0	 0.0; % NG
	1043	 600.0	 112.24	 387.88	 -163.4	 1.0	 100.0	 1	 900.0	 300.0; % NG
	1083	 60.0	 17.515	 54.91	 -19.88	 1.0	 100.0	 1	 120.0	 0.0; % NG
	1093	 800.0	 182.77	 550.69	 -185.15	 1.0	 100.0	 1	 1200.0	 400.0; % COW
	1100	 40.0	 11.895	 36.8	 -13.01	 1.0	 100.0	 1	 80.0	 0.0; % NG
	1102	 -32.77	 13.23	 38.05	 -11.59	 1.0	 100.0	 1	 100.0	 -165.54; % NG
	1237	 1333.335	 293.585	 906.61	 -319.44	 1.0	 100.0	 1	 2000.0	 666.67; % COW
	1251	 800.0	 182.77	 550.69	 -185.15	 1.0	 100.0	 1	 1200.0	 400.0; % COW
	1295	 -32.735	 12.02	 36.92	 -12.88	 1.0	 100.0	 1	 100.0	 -165.47; % NG
	1341	 60.0	 19.705	 57.03	 -17.62	 1.0	 100.0	 1	 120.0	 0.0; % NG
	1354	 -114.335	 13.175	 38.08	 -11.73	 1.0	 100.0	 1	 100.0	 -328.67; % NG
	1422	 -17.335	 5.65	 18.09	 -6.79	 1.0	 100.0	 1	 100.0	 -134.67; % NG
	1436	 40.0	 12.815	 37.72	 -12.09	 1.0	 100.0	 1	 80.0	 0.0; % NG
	1478	 40.0	 11.48	 36.4	 -13.44	 1.0	 100.0	 1	 80.0	 0.0; % NG
	1604	 40.0	 12.745	 37.66	 -12.17	 1.0	 100.0	 1	 80.0	 0.0; % NG
	1642	 40.0	 12.815	 37.74	 -12.11	 1.0	 100.0	 1	 80.0	 0.0; % NG
	1680	 1333.335	 316.395	 928.89	 -296.1	 1.0	 100.0	 1	 2000.0	 666.67; % COW
	1708	 666.665	 133.035	 439.37	 -173.3	 1.0	 100.0	 1	 1000.0	 333.33; % COW
	1721	 20.0	 6.065	 18.52	 -6.39	 1.0	 100.0	 1	 40.0	 0.0; % NG
	1754	 20.53	 4.535	 16.99	 -7.92	 1.0	 100.0	 1	 41.06	 0.0; % NG
	1794	 1333.335	 314.335	 926.35	 -297.68	 1.0	 100.0	 1	 2000.0	 666.67; % COW
	1808	 49.6	 36.535	 111.23	 -38.16	 1.0	 100.0	 1	 100.0	 -0.8; % COW
	1851	 15.96	 1.435	 11.76	 -8.89	 1.0	 100.0	 1	 31.92	 0.0; % NG
	1852	 -111.2	 20.82	 58.16	 -16.52	 1.0	 100.0	 1	 100.0	 -322.4; % NG
	1888	 612.78	 120.095	 396.02	 -155.83	 1.0	 100.0	 1	 912.78	 312.78; % NUC
	1914	 255.755	 4.705	 160.36	 -150.95	 1.0	 100.0	 1	 472.16	 39.35; % PEL
	1959	 20.0	 5.695	 18.14	 -6.75	 1.0	 100.0	 1	 40.0	 0.0; % NG
	2035	 666.665	 135.29	 441.85	 -171.27	 1.0	 100.0	 1	 1000.0	 333.33; % COW
	2050	 1333.335	 349.275	 962.2	 -263.65	 1.0	 100.0	 1	 2000.0	 666.67; % COW
	2085	 100.0	 26.1	 88.39	 -36.19	 1.0	 100.0	 1	 200.0	 0.0; % NG
	2177	 -30.865	 21.045	 58.35	 -16.26	 1.0	 100.0	 1	 100.0	 -161.73; % COW
	2197	 14.475	 2.385	 19.51	 -14.74	 1.0	 100.0	 1	 100.0	 -71.05; % NG
	2276	 59.65	 2.585	 41.67	 -36.5	 1.0	 100.0	 1	 119.3	 0.0; % NG
	2291	 100.0	 33.38	 95.69	 -28.93	 1.0	 100.0	 1	 200.0	 0.0; % NG
	2359	 40.0	 9.425	 34.35	 -15.5	 1.0	 100.0	 1	 80.0	 0.0; % NG
	2421	 -163.6	 12.47	 37.39	 -12.45	 1.0	 100.0	 1	 100.0	 -427.2; % NG
	2425	 -17.0	 16.905	 54.3	 -20.49	 1.0	 100.0	 1	 100.0	 -134.0; % NG
	2426	 21.2	 3.16	 105.34	 -99.02	 1.0	 100.0	 1	 100.0	 -57.6; % NG
	2446	 1333.335	 308.445	 921.62	 -304.73	 1.0	 100.0	 1	 2000.0	 666.67; % NUC
	2468	 40.0	 13.105	 38.02	 -11.81	 1.0	 100.0	 1	 80.0	 0.0; % COW
	2481	 40.0	 14.205	 39.12	 -10.71	 1.0	 100.0	 1	 80.0	 0.0; % NG
	2489	 180.0	 50.305	 162.4	 -61.79	 1.0	 100.0	 1	 360.0	 0.0; % NG
	2550	 60.0	 20.87	 58.23	 -16.49	 1.0	 100.0	 1	 120.0	 0.0; % NG
	2600	 80.0	 26.245	 76.08	 -23.59	 1.0	 100.0	 1	 160.0	 0.0; % NG
	2627	 1333.335	 308.365	 921.52	 -304.79	 1.0	 100.0	 1	 2000.0	 666.67; % COW
	2653	 60.0	 14.57	 51.94	 -22.8	 1.0	 100.0	 1	 120.0	 0.0; % NG
	2719	 98.36	 6.025	 70.15	 -58.1	 1.0	 100.0	 1	 196.72	 0.0; % NG
	2786	 1333.335	 321.67	 934.81	 -291.47	 1.0	 100.0	 1	 2000.0	 666.67; % COW
	2797	 -13.4	 26.0	 88.33	 -36.33	 1.0	 100.0	 1	 100.0	 -126.8; % NG
	2799	 80.0	 28.125	 77.91	 -21.66	 1.0	 100.0	 1	 160.0	 0.0; % NG
	2816	 1333.335	 314.26	 926.26	 -297.74	 1.0	 100.0	 1	 2000.0	 666.67; % COW
	2841	 60.0	 18.61	 55.98	 -18.76	 1.0	 100.0	 1	 120.0	 0.0; % NG
	2842	 20.0	 5.725	 18.19	 -6.74	 1.0	 100.0	 1	 40.0	 0.0; % COW
	2872	 4.525	 0.385	 3.31	 -2.54	 1.0	 100.0	 1	 9.05	 0.0; % NG
	2878	 107.43	 2.12	 72.95	 -68.71	 1.0	 100.0	 1	 214.86	 0.0; % NG
	2886	 60.0	 20.335	 57.69	 -17.02	 1.0	 100.0	 1	 120.0	 0.0; % NG
	2902	 20.0	 6.735	 19.19	 -5.72	 1.0	 100.0	 1	 40.0	 0.0; % NG
	2930	 40.0	 12.35	 37.24	 -12.54	 1.0	 100.0	 1	 80.0	 0.0; % COW
	2934	 3.415	 0.3	 2.51	 -1.91	 1.0	 100.0	 1	 6.83	 0.0; % COW
	2985	 246.675	 25.895	 184.46	 -132.67	 1.0	 100.0	 1	 493.35	 0.0; % COW
	3018	 100.0	 27.395	 89.61	 -34.82	 1.0	 100.0	 1	 200.0	 0.0; % NG
	3028	 666.665	 135.29	 441.85	 -171.27	 1.0	 100.0	 1	 1000.0	 333.33; % COW
	3114	 20.0	 4.86	 17.33	 -7.61	 1.0	 100.0	 1	 40.0	 0.0; % NG
	3133	 120.0	 39.205	 113.97	 -35.56	 1.0	 100.0	 1	 240.0	 0.0; % COW
	3134	 -40.865	 20.46	 70.25	 -29.33	 1.0	 100.0	 1	 100.0	 -181.73; % NG
	3183	 60.0	 16.36	 53.7	 -20.98	 1.0	 100.0	 1	 120.0	 0.0; % COW
	3205	 270.0	 77.575	 243.61	 -88.46	 1.0	 100.0	 1	 540.0	 0.0; % NG
	3218	 -21.6	 11.895	 36.79	 -13.0	 1.0	 100.0	 1	 100.0	 -143.2; % COW
	3240	 21.8	 5.43	 62.23	 -51.37	 1.0	 100.0	 1	 100.0	 -56.4; % NG
	3306	 666.665	 132.885	 439.2	 -173.43	 1.0	 100.0	 1	 1000.0	 333.33; % NUC
	3324	 32.35	 13.245	 38.13	 -11.64	 1.0	 100.0	 1	 100.0	 -35.3; % NG
	3346	 40.0	 12.17	 37.1	 -12.76	 1.0	 100.0	 1	 80.0	 0.0; % NG
	3353	 40.0	 13.295	 38.2	 -11.61	 1.0	 100.0	 1	 80.0	 0.0; % PEL
	3364	 67.635	 2.875	 47.19	 -41.44	 1.0	 100.0	 1	 135.27	 0.0; % NG
	3390	 60.0	 17.2	 54.59	 -20.19	 1.0	 100.0	 1	 120.0	 0.0; % NG
	3422	 60.0	 20.845	 58.19	 -16.5	 1.0	 100.0	 1	 120.0	 0.0; % NG
	3436	 800.0	 183.04	 550.97	 -184.89	 1.0	 100.0	 1	 1200.0	 400.0; % NUC
	3492	 -197.2	 16.335	 53.75	 -21.08	 1.0	 100.0	 1	 100.0	 -494.4; % NG
	3513	 600.0	 112.24	 387.88	 -163.4	 1.0	 100.0	 1	 900.0	 300.0; % NUC
	3565	 40.0	 13.93	 38.83	 -10.97	 1.0	 100.0	 1	 80.0	 0.0; % NG
	3580	 300.0	 77.17	 261.7	 -107.36	 1.0	 100.0	 1	 600.0	 0.0; % NG
	3611	 -33.6	 17.235	 54.59	 -20.12	 1.0	 100.0	 1	 100.0	 -167.2; % NG
	3656	 32.535	 41.375	 116.07	 -33.32	 1.0	 100.0	 1	 100.0	 -34.93; % NG
	3661	 666.665	 134.495	 441.04	 -172.05	 1.0	 100.0	 1	 1000.0	 333.33; % PEL
	3698	 41.61	 11.435	 36.34	 -13.47	 1.0	 100.0	 1	 100.0	 -16.78; % COW
	3741	 800.0	 180.705	 548.57	 -187.16	 1.0	 100.0	 1	 1200.0	 400.0; % NUC
	3809	 466.665	 98.14	 313.01	 -116.73	 1.0	 100.0	 1	 700.0	 233.33; % COW
	3825	 600.0	 112.385	 388.17	 -163.4	 1.0	 100.0	 1	 900.0	 300.0; % NUC
	3869	 666.665	 134.275	 440.69	 -172.14	 1.0	 100.0	 1	 1000.0	 333.33; % COW
	3876	 33.265	 9.375	 34.27	 -15.52	 1.0	 100.0	 1	 100.0	 -33.47; % COW
	3916	 35.815	 13.125	 38.02	 -11.77	 1.0	 100.0	 1	 100.0	 -28.37; % COW
	3951	 31.935	 -0.7	 126.16	 -127.56	 1.0	 100.0	 1	 100.0	 -36.13; % NG
	3971	 -39.665	 18.29	 55.67	 -19.09	 1.0	 100.0	 1	 100.0	 -179.33; % NG
	4024	 100.0	 34.815	 97.07	 -27.44	 1.0	 100.0	 1	 200.0	 0.0; % NG
	4056	 -1.265	 13.14	 38.05	 -11.77	 1.0	 100.0	 1	 100.0	 -102.53; % NG
	4084	 300.0	 80.6	 264.94	 -103.74	 1.0	 100.0	 1	 600.0	 0.0; % NG
	4118	 40.0	 13.485	 38.37	 -11.4	 1.0	 100.0	 1	 80.0	 0.0; % NG
	4125	 40.0	 11.945	 36.89	 -13.0	 1.0	 100.0	 1	 80.0	 0.0; % NG
	4128	 60.0	 19.7	 57.03	 -17.63	 1.0	 100.0	 1	 120.0	 0.0; % COW
	4231	 2761.14	 0.0	 99999.0	 -99999.0	 1.0	 100.0	 1	 4188.95	 1333.33; % NUC
	4331	 40.0	 11.805	 36.73	 -13.12	 1.0	 100.0	 1	 80.0	 0.0; % NG
	4395	 -36.065	 13.575	 38.48	 -11.33	 1.0	 100.0	 1	 100.0	 -172.13; % NG
	4419	 666.665	 134.495	 441.04	 -172.05	 1.0	 100.0	 1	 1000.0	 333.33; % COW
	4480	 666.665	 132.885	 439.2	 -173.43	 1.0	 100.0	 1	 1000.0	 333.33; % COW
	4482	 40.0	 13.95	 38.85	 -10.95	 1.0	 100.0	 1	 80.0	 0.0; % NG
	4506	 -64.535	 12.955	 37.86	 -11.95	 1.0	 100.0	 1	 100.0	 -229.07; % NG
	4566	 29.745	 13.035	 37.94	 -11.87	 1.0	 100.0	 1	 100.0	 -40.51; % NG
	4624	 40.0	 10.715	 35.62	 -14.19	 1.0	 100.0	 1	 80.0	 0.0; % NG
	4661	 -2.6	 6.685	 19.14	 -5.77	 1.0	 100.0	 1	 100.0	 -105.2; % COW
	4701	 140.925	 6.055	 98.4	 -86.29	 1.0	 100.0	 1	 281.85	 0.0; % NG
	4783	 666.665	 132.885	 439.2	 -173.43	 1.0	 100.0	 1	 1000.0	 333.33; % NUC
	4816	 32.615	 13.465	 38.37	 -11.44	 1.0	 100.0	 1	 100.0	 -34.77; % NG
	4819	 666.665	 134.275	 440.69	 -172.14	 1.0	 100.0	 1	 1000.0	 333.33; % COW
	4823	 5.23	 1.185	 4.44	 -2.07	 1.0	 100.0	 1	 10.46	 0.0; % NG
	4850	 80.0	 26.665	 76.52	 -23.19	 1.0	 100.0	 1	 160.0	 0.0; % NG
	4880	 23.135	 25.83	 75.62	 -23.96	 1.0	 100.0	 1	 100.0	 -53.73; % NG
	4918	 40.0	 12.35	 37.27	 -12.57	 1.0	 100.0	 1	 80.0	 0.0; % NG
	4952	 41.615	 12.31	 37.23	 -12.61	 1.0	 100.0	 1	 100.0	 -16.77; % NG
	5004	 110.06	 2.16	 74.73	 -70.41	 1.0	 100.0	 1	 220.12	 0.0; % NG
	5019	 40.0	 12.815	 37.72	 -12.09	 1.0	 100.0	 1	 80.0	 0.0; % COW
	5051	 80.0	 24.79	 74.55	 -24.97	 1.0	 100.0	 1	 160.0	 0.0; % PEL
	5067	 300.0	 74.665	 258.91	 -109.58	 1.0	 100.0	 1	 600.0	 0.0; % COW
	5110	 14.995	 13.39	 38.28	 -11.5	 1.0	 100.0	 1	 100.0	 -70.01; % COW
	5120	 60.0	 18.965	 56.35	 -18.42	 1.0	 100.0	 1	 120.0	 0.0; % NG
	5144	 1333.335	 269.81	 882.86	 -343.24	 1.0	 100.0	 1	 2000.0	 666.67; % NG
	5237	 80.0	 25.14	 75.02	 -24.74	 1.0	 100.0	 1	 160.0	 0.0; % NG
	5278	 60.0	 13.905	 51.3	 -23.49	 1.0	 100.0	 1	 120.0	 0.0; % NG
	5340	 -56.0	 11.47	 36.37	 -13.43	 1.0	 100.0	 1	 100.0	 -212.0; % NG
	5365	 20.0	 5.695	 18.14	 -6.75	 1.0	 100.0	 1	 40.0	 0.0; % NG
	5379	 1333.335	 314.42	 926.47	 -297.63	 1.0	 100.0	 1	 2000.0	 666.67; % COW
	5395	 -213.865	 20.7	 58.06	 -16.66	 1.0	 100.0	 1	 100.0	 -527.73; % NG
	5461	 40.0	 13.355	 38.26	 -11.55	 1.0	 100.0	 1	 80.0	 0.0; % NG
	5481	 1333.335	 307.335	 920.31	 -305.64	 1.0	 100.0	 1	 2000.0	 666.67; % COW
	5482	 124.53	 26.6	 101.32	 -48.12	 1.0	 100.0	 1	 249.06	 0.0; % NG
	5486	 666.665	 134.495	 441.04	 -172.05	 1.0	 100.0	 1	 1000.0	 333.33; % COW
	5488	 -14.265	 12.58	 37.49	 -12.33	 1.0	 100.0	 1	 100.0	 -128.53; % NG
	5490	 2666.665	 539.345	 1765.36	 -686.67	 1.0	 100.0	 1	 4000.0	 1333.33; % COW
	5533	 100.0	 26.58	 88.87	 -35.71	 1.0	 100.0	 1	 200.0	 0.0; % NG
	5546	 20.0	 6.705	 19.16	 -5.75	 1.0	 100.0	 1	 40.0	 0.0; % COW
	5564	 40.0	 11.905	 36.8	 -12.99	 1.0	 100.0	 1	 80.0	 0.0; % NG
	5658	 120.0	 28.465	 103.18	 -46.25	 1.0	 100.0	 1	 240.0	 0.0; % COW
	5664	 80.0	 22.83	 72.71	 -27.05	 1.0	 100.0	 1	 160.0	 0.0; % NG
	5709	 800.0	 182.77	 550.69	 -185.15	 1.0	 100.0	 1	 1200.0	 400.0; % COW
	5781	 1200.0	 227.25	 779.29	 -324.79	 1.0	 100.0	 1	 1800.0	 600.0; % NG
	5814	 293.335	 59.905	 196.98	 -77.17	 1.0	 100.0	 1	 440.0	 146.67; % NG
	5856	 320.0	 64.565	 214.13	 -85.0	 1.0	 100.0	 1	 480.0	 160.0; % NG
	5881	 40.0	 11.795	 36.72	 -13.13	 1.0	 100.0	 1	 80.0	 0.0; % PEL
	5940	 0.065	 4.74	 17.21	 -7.73	 1.0	 100.0	 1	 100.0	 -99.87; % NG
	5971	 1333.335	 321.45	 934.54	 -291.64	 1.0	 100.0	 1	 2000.0	 666.67; % COW
	5983	 -18.335	 12.34	 37.27	 -12.59	 1.0	 100.0	 1	 100.0	 -136.67; % NG
	5994	 -8.2	 -0.285	 60.51	 -61.08	 1.0	 100.0	 1	 100.0	 -116.4; % COW
	6036	 600.0	 114.62	 390.4	 -161.16	 1.0	 100.0	 1	 900.0	 300.0; % NUC
	6153	 401.01	 -6.085	 249.65	 -261.82	 1.0	 100.0	 1	 769.94	 32.08; % COW
	6168	 26.88	 2.465	 19.86	 -14.93	 1.0	 100.0	 1	 53.76	 0.0; % NG
	6291	 60.0	 20.76	 58.12	 -16.6	 1.0	 100.0	 1	 120.0	 0.0; % NG
	6331	 40.0	 12.855	 37.76	 -12.05	 1.0	 100.0	 1	 80.0	 0.0; % NG
	6332	 100.0	 34.305	 96.56	 -27.95	 1.0	 100.0	 1	 200.0	 0.0; % COW
	6351	 40.0	 13.365	 38.29	 -11.56	 1.0	 100.0	 1	 80.0	 0.0; % NG
	6368	 -46.865	 13.825	 51.11	 -23.46	 1.0	 100.0	 1	 100.0	 -193.73; % NG
	6376	 31.465	 48.96	 148.65	 -50.73	 1.0	 100.0	 1	 100.0	 -37.07; % COW
	6429	 100.0	 26.57	 88.83	 -35.69	 1.0	 100.0	 1	 200.0	 0.0; % NG
	6474	 666.665	 132.285	 438.72	 -174.15	 1.0	 100.0	 1	 1000.0	 333.33; % COW
	6516	 140.0	 39.45	 126.73	 -47.83	 1.0	 100.0	 1	 280.0	 0.0; % COW
	6552	 -86.135	 12.71	 37.58	 -12.16	 1.0	 100.0	 1	 100.0	 -272.27; % NG
	6734	 360.0	 89.715	 311.52	 -132.09	 1.0	 100.0	 1	 720.0	 0.0; % COW
	6807	 80.0	 27.34	 77.14	 -22.46	 1.0	 100.0	 1	 160.0	 0.0; % COW
	6816	 80.0	 27.545	 77.35	 -22.26	 1.0	 100.0	 1	 160.0	 0.0; % COW
	6820	 16.265	 1.465	 11.99	 -9.06	 1.0	 100.0	 1	 32.53	 0.0; % PEL
	6831	 11.665	 10.685	 35.62	 -14.25	 1.0	 100.0	 1	 100.0	 -76.67; % COW
	6845	 60.0	 15.885	 53.24	 -21.47	 1.0	 100.0	 1	 120.0	 0.0; % COW
	6852	 -179.935	 6.11	 18.56	 -6.34	 1.0	 100.0	 1	 100.0	 -459.87; % NG
	6857	 2666.665	 639.94	 1865.83	 -585.95	 1.0	 100.0	 1	 4000.0	 1333.33; % COW
	6888	 194.335	 64.72	 189.31	 -59.87	 1.0	 100.0	 1	 300.0	 88.67; % NG
	6947	 140.0	 38.9	 126.09	 -48.29	 1.0	 100.0	 1	 280.0	 0.0; % NG
...
];

%% generator cost data
%	2	startup	shutdown	n	c(n-1)	...	c0
mpc.gencost = [
2	0.0	0.0	3	0.2	10.258323	0.000000;	%	COW
2	0.0	0.0	3	0.2	35.739304	0.000000;	%	NG
2	0.0	0.0	3	0.2	25.382856	0.000000;	%	COW
2	0.0	0.0	3	0.2	22.570530	0.000000;	%	NG
2	0.0	0.0	3	0.2	24.410748	0.000000;	%	COW
2	0.0	0.0	3	0.2	37.397266	0.000000;	%	NG
2	0.0	0.0	3	0.2	14.602967	0.000000;	%	NG
2	0.0	0.0	3	0.2	6.171706	0.000000;	%	NUC
2	0.0	0.0	3	0.2	26.392883	0.000000;	%	COW
2	0.0	0.0	3	0.2	29.720369	0.000000;	%	NG
2	0.0	0.0	3	0.2	35.601645	0.000000;	%	NG
2	0.0	0.0	3	0.2	19.829521	0.000000;	%	NG
2	0.0	0.0	3	0.2	15.010680	0.000000;	%	NG
2	0.0	0.0	3	0.2	9.860522	0.000000;	%	NG
2	0.0	0.0	3	0.2	11.144193	0.000000;	%	COW
2	0.0	0.0	3	0.2	0.348478	0.000000;	%	NG
2	0.0	0.0	3	0.2	45.480340	0.000000;	%	NG
2	0.0	0.0	3	0.2	48.260283	0.000000;	%	NG
2	0.0	0.0	3	0.2	28.185912	0.000000;	%	NG
2	0.0	0.0	3	0.2	32.876654	0.000000;	%	COW
2	0.0	0.0	3	0.2	29.050011	0.000000;	%	COW
2	0.0	0.0	3	0.2	17.693424	0.000000;	%	COW
2	0.0	0.0	3	0.2	28.179452	0.000000;	%	COW
2	0.0	0.0	3	0.2	16.782950	0.000000;	%	COW
2	0.0	0.0	3	0.2	34.077711	0.000000;	%	COW
2	0.0	0.0	3	0.2	25.254765	0.000000;	%	NG
2	0.0	0.0	3	0.2	25.888316	0.000000;	%	NG
2	0.0	0.0	3	0.2	38.064806	0.000000;	%	NG
2	0.0	0.0	3	0.2	35.093256	0.000000;	%	NG
2	0.0	0.0	3	0.2	33.895058	0.000000;	%	COW
2	0.0	0.0	3	0.2	42.531078	0.000000;	%	NG
2	0.0	0.0	3	0.2	44.703485	0.000000;	%	NG
2	0.0	0.0	3	0.2	19.144125	0.000000;	%	COW
2	0.0	0.0	3	0.2	39.146988	0.000000;	%	COW
2	0.0	0.0	3	0.2	32.283038	0.000000;	%	NG
2	0.0	0.0	3	0.2	33.961897	0.000000;	%	NG
2	0.0	0.0	3	0.2	24.001968	0.000000;	%	NG
2	0.0	0.0	3	0.2	26.922445	0.000000;	%	NG
2	0.0	0.0	3	0.2	28.934071	0.000000;	%	NG
2	0.0	0.0	3	0.2	29.194991	0.000000;	%	NG
2	0.0	0.0	3	0.2	39.793039	0.000000;	%	NG
2	0.0	0.0	3	0.2	43.399752	0.000000;	%	NG
2	0.0	0.0	3	0.2	20.054935	0.000000;	%	COW
2	0.0	0.0	3	0.2	18.252906	0.000000;	%	COW
2	0.0	0.0	3	0.2	41.981874	0.000000;	%	NG
2	0.0	0.0	3	0.2	42.982040	0.000000;	%	NG
2	0.0	0.0	3	0.2	16.220225	0.000000;	%	COW
2	0.0	0.0	3	0.2	21.265424	0.000000;	%	COW
2	0.0	0.0	3	0.2	17.662994	0.000000;	%	NG
2	0.0	0.0	3	0.2	15.838148	0.000000;	%	NG
2	0.0	0.0	3	0.2	6.883722	0.000000;	%	NUC
2	0.0	0.0	3	0.2	118.076690	0.000000;	%	PEL
2	0.0	0.0	3	0.2	19.828960	0.000000;	%	NG
2	0.0	0.0	3	0.2	18.889404	0.000000;	%	COW
2	0.0	0.0	3	0.2	32.470152	0.000000;	%	COW
2	0.0	0.0	3	0.2	26.491829	0.000000;	%	NG
2	0.0	0.0	3	0.2	24.981434	0.000000;	%	COW
2	0.0	0.0	3	0.2	38.427501	0.000000;	%	NG
2	0.0	0.0	3	0.2	38.894704	0.000000;	%	NG
2	0.0	0.0	3	0.2	34.810352	0.000000;	%	NG
2	0.0	0.0	3	0.2	32.089221	0.000000;	%	NG
2	0.0	0.0	3	0.2	24.960517	0.000000;	%	NG
2	0.0	0.0	3	0.2	40.587389	0.000000;	%	NG
2	0.0	0.0	3	0.2	36.445820	0.000000;	%	NG
2	0.0	0.0	3	0.2	6.803769	0.000000;	%	NUC
2	0.0	0.0	3	0.2	27.474887	0.000000;	%	COW
2	0.0	0.0	3	0.2	28.188143	0.000000;	%	NG
2	0.0	0.0	3	0.2	27.672537	0.000000;	%	NG
2	0.0	0.0	3	0.2	37.476158	0.000000;	%	NG
2	0.0	0.0	3	0.2	38.324360	0.000000;	%	NG
2	0.0	0.0	3	0.2	29.361646	0.000000;	%	COW
2	0.0	0.0	3	0.2	46.894604	0.000000;	%	NG
2	0.0	0.0	3	0.2	33.066585	0.000000;	%	NG
2	0.0	0.0	3	0.2	10.656581	0.000000;	%	COW
2	0.0	0.0	3	0.2	15.138451	0.000000;	%	NG
2	0.0	0.0	3	0.2	34.209845	0.000000;	%	NG
2	0.0	0.0	3	0.2	24.094682	0.000000;	%	COW
2	0.0	0.0	3	0.2	24.965438	0.000000;	%	NG
2	0.0	0.0	3	0.2	23.765406	0.000000;	%	COW
2	0.0	0.0	3	0.2	30.752977	0.000000;	%	NG
2	0.0	0.0	3	0.2	22.474015	0.000000;	%	NG
2	0.0	0.0	3	0.2	34.978644	0.000000;	%	NG
2	0.0	0.0	3	0.2	30.995415	0.000000;	%	NG
2	0.0	0.0	3	0.2	18.020307	0.000000;	%	COW
2	0.0	0.0	3	0.2	22.902755	0.000000;	%	COW
2	0.0	0.0	3	0.2	28.059178	0.000000;	%	COW
2	0.0	0.0	3	0.2	31.565151	0.000000;	%	NG
2	0.0	0.0	3	0.2	23.865040	0.000000;	%	COW
2	0.0	0.0	3	0.2	19.680050	0.000000;	%	NG
2	0.0	0.0	3	0.2	26.499589	0.000000;	%	COW
2	0.0	0.0	3	0.2	28.385891	0.000000;	%	NG
2	0.0	0.0	3	0.2	39.235310	0.000000;	%	COW
2	0.0	0.0	3	0.2	31.599182	0.000000;	%	NG
2	0.0	0.0	3	0.2	30.647840	0.000000;	%	COW
2	0.0	0.0	3	0.2	38.311440	0.000000;	%	NG
2	0.0	0.0	3	0.2	7.517541	0.000000;	%	NUC
2	0.0	0.0	3	0.2	14.951813	0.000000;	%	NG
2	0.0	0.0	3	0.2	24.810462	0.000000;	%	NG
2	0.0	0.0	3	0.2	79.708144	0.000000;	%	PEL
2	0.0	0.0	3	0.2	23.802999	0.000000;	%	NG
2	0.0	0.0	3	0.2	34.702382	0.000000;	%	NG
2	0.0	0.0	3	0.2	38.611659	0.000000;	%	NG
2	0.0	0.0	3	0.2	7.619883	0.000000;	%	NUC
2	0.0	0.0	3	0.2	42.195400	0.000000;	%	NG
2	0.0	0.0	3	0.2	7.253371	0.000000;	%	NUC
2	0.0	0.0	3	0.2	37.314915	0.000000;	%	NG
2	0.0	0.0	3	0.2	31.383243	0.000000;	%	NG
2	0.0	0.0	3	0.2	22.446061	0.000000;	%	NG
2	0.0	0.0	3	0.2	27.981934	0.000000;	%	NG
2	0.0	0.0	3	0.2	100.586864	0.000000;	%	PEL
2	0.0	0.0	3	0.2	33.204589	0.000000;	%	COW
2	0.0	0.0	3	0.2	7.122779	0.000000;	%	NUC
2	0.0	0.0	3	0.2	18.666900	0.000000;	%	COW
2	0.0	0.0	3	0.2	7.550981	0.000000;	%	NUC
2	0.0	0.0	3	0.2	35.604133	0.000000;	%	COW
2	0.0	0.0	3	0.2	19.804309	0.000000;	%	COW
2	0.0	0.0	3	0.2	26.144799	0.000000;	%	COW
2	0.0	0.0	3	0.2	44.147810	0.000000;	%	NG
2	0.0	0.0	3	0.2	35.562693	0.000000;	%	NG
2	0.0	0.0	3	0.2	35.807424	0.000000;	%	NG
2	0.0	0.0	3	0.2	39.446996	0.000000;	%	NG
2	0.0	0.0	3	0.2	18.538670	0.000000;	%	NG
2	0.0	0.0	3	0.2	30.909880	0.000000;	%	NG
2	0.0	0.0	3	0.2	30.544167	0.000000;	%	NG
2	0.0	0.0	3	0.2	35.965332	0.000000;	%	COW
2	0.0	0.0	3	0.2	7.051011	0.000000;	%	NUC
2	0.0	0.0	3	0.2	42.356822	0.000000;	%	NG
2	0.0	0.0	3	0.2	27.296003	0.000000;	%	NG
2	0.0	0.0	3	0.2	30.938094	0.000000;	%	COW
2	0.0	0.0	3	0.2	28.931033	0.000000;	%	COW
2	0.0	0.0	3	0.2	22.588806	0.000000;	%	NG
2	0.0	0.0	3	0.2	37.302716	0.000000;	%	NG
2	0.0	0.0	3	0.2	37.977313	0.000000;	%	NG
2	0.0	0.0	3	0.2	4.345048	0.000000;	%	NG
2	0.0	0.0	3	0.2	22.462959	0.000000;	%	COW
2	0.0	0.0	3	0.2	19.814769	0.000000;	%	NG
2	0.0	0.0	3	0.2	8.016700	0.000000;	%	NUC
2	0.0	0.0	3	0.2	20.456068	0.000000;	%	NG
2	0.0	0.0	3	0.2	44.670249	0.000000;	%	COW
2	0.0	0.0	3	0.2	43.366752	0.000000;	%	NG
2	0.0	0.0	3	0.2	36.105171	0.000000;	%	NG
2	0.0	0.0	3	0.2	25.107671	0.000000;	%	NG
2	0.0	0.0	3	0.2	37.943609	0.000000;	%	NG
2	0.0	0.0	3	0.2	33.086316	0.000000;	%	NG
2	0.0	0.0	3	0.2	36.303918	0.000000;	%	NG
2	0.0	0.0	3	0.2	29.260622	0.000000;	%	COW
2	0.0	0.0	3	0.2	98.992318	0.000000;	%	PEL
2	0.0	0.0	3	0.2	27.405063	0.000000;	%	COW
2	0.0	0.0	3	0.2	17.378434	0.000000;	%	COW
2	0.0	0.0	3	0.2	34.198047	0.000000;	%	NG
2	0.0	0.0	3	0.2	36.694475	0.000000;	%	NG
2	0.0	0.0	3	0.2	37.735549	0.000000;	%	NG
2	0.0	0.0	3	0.2	8.912924	0.000000;	%	NG
2	0.0	0.0	3	0.2	38.250898	0.000000;	%	NG
2	0.0	0.0	3	0.2	14.979523	0.000000;	%	NG
2	0.0	0.0	3	0.2	28.538110	0.000000;	%	COW
2	0.0	0.0	3	0.2	39.424853	0.000000;	%	NG
2	0.0	0.0	3	0.2	39.296805	0.000000;	%	NG
2	0.0	0.0	3	0.2	14.861628	0.000000;	%	COW
2	0.0	0.0	3	0.2	29.670276	0.000000;	%	NG
2	0.0	0.0	3	0.2	33.798273	0.000000;	%	COW
2	0.0	0.0	3	0.2	28.336670	0.000000;	%	NG
2	0.0	0.0	3	0.2	18.404323	0.000000;	%	COW
2	0.0	0.0	3	0.2	41.060039	0.000000;	%	NG
2	0.0	0.0	3	0.2	32.080860	0.000000;	%	COW
2	0.0	0.0	3	0.2	33.555466	0.000000;	%	NG
2	0.0	0.0	3	0.2	13.210681	0.000000;	%	COW
2	0.0	0.0	3	0.2	32.184103	0.000000;	%	NG
2	0.0	0.0	3	0.2	16.825774	0.000000;	%	COW
2	0.0	0.0	3	0.2	30.459416	0.000000;	%	NG
2	0.0	0.0	3	0.2	31.825995	0.000000;	%	NG
2	0.0	0.0	3	0.2	25.704435	0.000000;	%	NG
2	0.0	0.0	3	0.2	113.881521	0.000000;	%	PEL
2	0.0	0.0	3	0.2	48.679477	0.000000;	%	NG
2	0.0	0.0	3	0.2	37.090734	0.000000;	%	COW
2	0.0	0.0	3	0.2	44.629615	0.000000;	%	NG
2	0.0	0.0	3	0.2	4.688000	0.000000;	%	COW
2	0.0	0.0	3	0.2	7.924707	0.000000;	%	NUC
2	0.0	0.0	3	0.2	15.196866	0.000000;	%	COW
2	0.0	0.0	3	0.2	31.536394	0.000000;	%	NG
2	0.0	0.0	3	0.2	41.051660	0.000000;	%	NG
2	0.0	0.0	3	0.2	36.290422	0.000000;	%	NG
2	0.0	0.0	3	0.2	16.038621	0.000000;	%	COW
2	0.0	0.0	3	0.2	32.583295	0.000000;	%	NG
2	0.0	0.0	3	0.2	18.644095	0.000000;	%	NG
2	0.0	0.0	3	0.2	25.524756	0.000000;	%	COW
2	0.0	0.0	3	0.2	36.090071	0.000000;	%	NG
2	0.0	0.0	3	0.2	43.804954	0.000000;	%	COW
2	0.0	0.0	3	0.2	26.393553	0.000000;	%	COW
2	0.0	0.0	3	0.2	47.182687	0.000000;	%	NG
2	0.0	0.0	3	0.2	14.350508	0.000000;	%	COW
2	0.0	0.0	3	0.2	14.275729	0.000000;	%	COW
2	0.0	0.0	3	0.2	24.479866	0.000000;	%	COW
2	0.0	0.0	3	0.2	114.612148	0.000000;	%	PEL
2	0.0	0.0	3	0.2	32.065876	0.000000;	%	COW
2	0.0	0.0	3	0.2	29.385085	0.000000;	%	COW
2	0.0	0.0	3	0.2	36.659346	0.000000;	%	NG
2	0.0	0.0	3	0.2	4.602100	0.000000;	%	COW
2	0.0	0.0	3	0.2	58.771001	0.000000;	%	NG
2	0.0	0.0	3	0.2	15.431582	0.000000;	%	NG
...
];

%% storage data
%	bus	energy	energy_rating	charge_rating	discharge_rating	thermal_rating	qmin	qmax	r	x	standby_loss	status
mpc.storage = [
	6246	0.0	0.0	1.00	2654.9100	1327.4550	955.7676	0.9	0.85	1000	-1000	1000	0.1	0.01	0	0	1;
	3145	0.0	0.0	1.00	1291.4250	645.7125	464.9130	0.9	0.85	1000	-1000	1000	0.1	0.01	0	0	1;
	118	0.0	0.0	1.00	1056.7950	528.3975	380.4462	0.9	0.85	1000	-1000	1000	0.1	0.01	0	0	1;
	905	0.0	0.0	1.00	947.5650	473.7825	341.1234	0.9	0.85	1000	-1000	1000	0.1	0.01	0	0	1;
	9203	0.0	0.0	1.00	941.0400	470.5200	338.7744	0.9	0.85	1000	-1000	1000	0.1	0.01	0	0	1;
	3083	0.0	0.0	1.00	851.9550	425.9775	306.7038	0.9	0.85	1000	-1000	1000	0.1	0.01	0	0	1;
	333	0.0	0.0	1.00	786.7500	393.3750	283.2300	0.9	0.85	1000	-1000	1000	0.1	0.01	0	0	1;
	7752	0.0	0.0	1.00	786.7500	393.3750	283.2300	0.9	0.85	1000	-1000	1000	0.1	0.01	0	0	1;
	4426	0.0	0.0	1.00	728.2500	364.1250	262.1700	0.9	0.85	1000	-1000	1000	0.1	0.01	0	0	1;
	1301	0.0	0.0	1.00	718.5000	359.2500	258.6600	0.9	0.85	1000	-1000	1000	0.1	0.01	0	0	1;
	2848	0.0	0.0	1.00	679.8450	339.9225	244.7442	0.9	0.85	1000	-1000	1000	0.1	0.01	0	0	1;
	1644	0.0	0.0	1.00	674.3400	337.1700	242.7624	0.9	0.85	1000	-1000	1000	0.1	0.01	0	0	1;
	6357	0.0	0.0	1.00	646.2000	323.1000	232.6320	0.9	0.85	1000	-1000	1000	0.1	0.01	0	0	1;
	6053	0.0	0.0	1.00	618.1500	309.0750	222.5340	0.9	0.85	1000	-1000	1000	0.1	0.01	0	0	1;
	8853	0.0	0.0	1.00	615.4500	307.7250	221.5620	0.9	0.85	1000	-1000	1000	0.1	0.01	0	0	1;
	8825	0.0	0.0	1.00	609.0600	304.5300	219.2616	0.9	0.85	1000	-1000	1000	0.1	0.01	0	0	1;
	726	0.0	0.0	1.00	600.4500	300.2250	216.1620	0.9	0.85	1000	-1000	1000	0.1	0.01	0	0	1;
	7256	0.0	0.0	1.00	588.3750	294.1875	211.8150	0.9	0.85	1000	-1000	1000	0.1	0.01	0	0	1;
	6639	0.0	0.0	1.00	582.0600	291.0300	209.5416	0.9	0.85	1000	-1000	1000	0.1	0.01	0	0	1;
	1035	0.0	0.0	1.00	573.7500	286.8750	206.5500	0.9	0.85	1000	-1000	1000	0.1	0.01	0	0	1;
	8439	0.0	0.0	1.00	571.2000	285.6000	205.6320	0.9	0.85	1000	-1000	1000	0.1	0.01	0	0	1;
	174	0.0	0.0	1.00	555.7500	277.8750	200.0700	0.9	0.85	1000	-1000	1000	0.1	0.01	0	0	1;
	90	0.0	0.0	1.00	544.8750	272.4375	196.1550	0.9	0.85	1000	-1000	1000	0.1	0.01	0	0	1;
	5419	0.0	0.0	1.00	523.9500	261.9750	188.6220	0.9	0.85	1000	-1000	1000	0.1	0.01	0	0	1;
	1249	0.0	0.0	1.00	523.3950	261.6975	188.4222	0.9	0.85	1000	-1000	1000	0.1	0.01	0	0	1;
	7905	0.0	0.0	1.00	520.6500	260.3250	187.4340	0.9	0.85	1000	-1000	1000	0.1	0.01	0	0	1;
	7541	0.0	0.0	1.00	519.6300	259.8150	187.0668	0.9	0.85	1000	-1000	1000	0.1	0.01	0	0	1;
	772	0.0	0.0	1.00	515.8500	257.9250	185.7060	0.9	0.85	1000	-1000	1000	0.1	0.01	0	0	1;
	7047	0.0	0.0	1.00	509.8500	254.9250	183.5460	0.9	0.85	1000	-1000	1000	0.1	0.01	0	0	1;
	7895	0.0	0.0	1.00	508.0500	254.0250	182.8980	0.9	0.85	1000	-1000	1000	0.1	0.01	0	0	1;
	5720	0.0	0.0	1.00	506.4000	253.2000	182.3040	0.9	0.85	1000	-1000	1000	0.1	0.01	0	0	1;
	1767	0.0	0.0	1.00	500.2500	250.1250	180.0900	0.9	0.85	1000	-1000	1000	0.1	0.01	0	0	1;
	207	0.0	0.0	1.00	482.9700	241.4850	173.8692	0.9	0.85	1000	-1000	1000	0.1	0.01	0	0	1;
	4936	0.0	0.0	1.00	468.3000	234.1500	168.5880	0.9	0.85	1000	-1000	1000	0.1	0.01	0	0	1;
	4144	0.0	0.0	1.00	465.3000	232.6500	167.5080	0.9	0.85	1000	-1000	1000	0.1	0.01	0	0	1;
	6697	0.0	0.0	1.00	463.5000	231.7500	166.8600	0.9	0.85	1000	-1000	1000	0.1	0.01	0	0	1;
	4324	0.0	0.0	1.00	461.1300	230.5650	166.0068	0.9	0.85	1000	-1000	1000	0.1	0.01	0	0	1;
	8691	0.0	0.0	1.00	457.5600	228.7800	164.7216	0.9	0.85	1000	-1000	1000	0.1	0.01	0	0	1;
	3391	0.0	0.0	1.00	453.7500	226.8750	163.3500	0.9	0.85	1000	-1000	1000	0.1	0.01	0	0	1;
	5317	0.0	0.0	1.00	439.8000	219.9000	158.3280	0.9	0.85	1000	-1000	1000	0.1	0.01	0	0	1;
	8180	0.0	0.0	1.00	437.4000	218.7000	157.4640	0.9	0.85	1000	-1000	1000	0.1	0.01	0	0	1;
	2432	0.0	0.0	1.00	436.8000	218.4000	157.2480	0.9	0.85	1000	-1000	1000	0.1	0.01	0	0	1;
	8448	0.0	0.0	1.00	429.1500	214.5750	154.4940	0.9	0.85	1000	-1000	1000	0.1	0.01	0	0	1;
	8874	0.0	0.0	1.00	427.8000	213.9000	154.0080	0.9	0.85	1000	-1000	1000	0.1	0.01	0	0	1;
	8748	0.0	0.0	1.00	419.5500	209.7750	151.0380	0.9	0.85	1000	-1000	1000	0.1	0.01	0	0	1;
	8893	0.0	0.0	1.00	417.4500	208.7250	150.2820	0.9	0.85	1000	-1000	1000	0.1	0.01	0	0	1;
	1081	0.0	0.0	1.00	416.7900	208.3950	150.0444	0.9	0.85	1000	-1000	1000	0.1	0.01	0	0	1;
	3579	0.0	0.0	1.00	416.5800	208.2900	149.9688	0.9	0.85	1000	-1000	1000	0.1	0.01	0	0	1;
	8628	0.0	0.0	1.00	415.6500	207.8250	149.6340	0.9	0.85	1000	-1000	1000	0.1	0.01	0	0	1;
	455	0.0	0.0	1.00	411.4800	205.7400	148.1328	0.9	0.85	1000	-1000	1000	0.1	0.01	0	0	1;
	4032	0.0	0.0	1.00	398.5500	199.2750	143.4780	0.9	0.85	1000	-1000	1000	0.1	0.01	0	0	1;
	8334	0.0	0.0	1.00	395.9400	197.9700	142.5384	0.9	0.85	1000	-1000	1000	0.1	0.01	0	0	1;
	7069	0.0	0.0	1.00	388.1850	194.0925	139.7466	0.9	0.85	1000	-1000	1000	0.1	0.01	0	0	1;
	658	0.0	0.0	1.00	387.6000	193.8000	139.5360	0.9	0.85	1000	-1000	1000	0.1	0.01	0	0	1;
	2591	0.0	0.0	1.00	380.6550	190.3275	137.0358	0.9	0.85	1000	-1000	1000	0.1	0.01	0	0	1;
	3231	0.0	0.0	1.00	376.9500	188.4750	135.7020	0.9	0.85	1000	-1000	1000	0.1	0.01	0	0	1;
	1965	0.0	0.0	1.00	373.0500	186.5250	134.2980	0.9	0.85	1000	-1000	1000	0.1	0.01	0	0	1;
	5213	0.0	0.0	1.00	370.2000	185.1000	133.2720	0.9	0.85	1000	-1000	1000	0.1	0.01	0	0	1;
	9130	0.0	0.0	1.00	368.2650	184.1325	132.5754	0.9	0.85	1000	-1000	1000	0.1	0.01	0	0	1;
	6744	0.0	0.0	1.00	366.1800	183.0900	131.8248	0.9	0.85	1000	-1000	1000	0.1	0.01	0	0	1;
	5836	0.0	0.0	1.00	366.1350	183.0675	131.8086	0.9	0.85	1000	-1000	1000	0.1	0.01	0	0	1;
	3121	0.0	0.0	1.00	363.2400	181.6200	130.7664	0.9	0.85	1000	-1000	1000	0.1	0.01	0	0	1;
	9231	0.0	0.0	1.00	363.1200	181.5600	130.7232	0.9	0.85	1000	-1000	1000	0.1	0.01	0	0	1;
	5400	0.0	0.0	1.00	362.4300	181.2150	130.4748	0.9	0.85	1000	-1000	1000	0.1	0.01	0	0	1;
	2526	0.0	0.0	1.00	357.6750	178.8375	128.7630	0.9	0.85	1000	-1000	1000	0.1	0.01	0	0	1;
	7972	0.0	0.0	1.00	356.8500	178.4250	128.4660	0.9	0.85	1000	-1000	1000	0.1	0.01	0	0	1;
	5525	0.0	0.0	1.00	354.4950	177.2475	127.6182	0.9	0.85	1000	-1000	1000	0.1	0.01	0	0	1;
	8494	0.0	0.0	1.00	353.9550	176.9775	127.4238	0.9	0.85	1000	-1000	1000	0.1	0.01	0	0	1;
	4357	0.0	0.0	1.00	352.5000	176.2500	126.9000	0.9	0.85	1000	-1000	1000	0.1	0.01	0	0	1;
	7974	0.0	0.0	1.00	351.0000	175.5000	126.3600	0.9	0.85	1000	-1000	1000	0.1	0.01	0	0	1;
	678	0.0	0.0	1.00	348.1500	174.0750	125.3340	0.9	0.85	1000	-1000	1000	0.1	0.01	0	0	1;
	6220	0.0	0.0	1.00	347.8500	173.9250	125.2260	0.9	0.85	1000	-1000	1000	0.1	0.01	0	0	1;
	2931	0.0	0.0	1.00	346.0500	173.0250	124.5780	0.9	0.85	1000	-1000	1000	0.1	0.01	0	0	1;
	5146	0.0	0.0	1.00	344.8500	172.4250	124.1460	0.9	0.85	1000	-1000	1000	0.1	0.01	0	0	1;
	7021	0.0	0.0	1.00	340.2000	170.1000	122.4720	0.9	0.85	1000	-1000	1000	0.1	0.01	0	0	1;
	5616	0.0	0.0	1.00	337.8000	168.9000	121.6080	0.9	0.85	1000	-1000	1000	0.1	0.01	0	0	1;
	7772	0.0	0.0	1.00	335.4000	167.7000	120.7440	0.9	0.85	1000	-1000	1000	0.1	0.01	0	0	1;
	7132	0.0	0.0	1.00	333.0000	166.5000	119.8800	0.9	0.85	1000	-1000	1000	0.1	0.01	0	0	1;
	6119	0.0	0.0	1.00	331.8750	165.9375	119.4750	0.9	0.85	1000	-1000	1000	0.1	0.01	0	0	1;
	3037	0.0	0.0	1.00	331.5000	165.7500	119.3400	0.9	0.85	1000	-1000	1000	0.1	0.01	0	0	1;
	7042	0.0	0.0	1.00	331.4700	165.7350	119.3292	0.9	0.85	1000	-1000	1000	0.1	0.01	0	0	1;
	7273	0.0	0.0	1.00	329.4000	164.7000	118.5840	0.9	0.85	1000	-1000	1000	0.1	0.01	0	0	1;
	4950	0.0	0.0	1.00	328.0500	164.0250	118.0980	0.9	0.85	1000	-1000	1000	0.1	0.01	0	0	1;
	8373	0.0	0.0	1.00	324.4500	162.2250	116.8020	0.9	0.85	1000	-1000	1000	0.1	0.01	0	0	1;
	8467	0.0	0.0	1.00	324.3000	162.1500	116.7480	0.9	0.85	1000	-1000	1000	0.1	0.01	0	0	1;
	2360	0.0	0.0	1.00	323.2500	161.6250	116.3700	0.9	0.85	1000	-1000	1000	0.1	0.01	0	0	1;
	1973	0.0	0.0	1.00	315.1500	157.5750	113.4540	0.9	0.85	1000	-1000	1000	0.1	0.01	0	0	1;
	1866	0.0	0.0	1.00	313.8000	156.9000	112.9680	0.9	0.85	1000	-1000	1000	0.1	0.01	0	0	1;
	2286	0.0	0.0	1.00	313.3200	156.6600	112.7952	0.9	0.85	1000	-1000	1000	0.1	0.01	0	0	1;
	8843	0.0	0.0	1.00	313.0500	156.5250	112.6980	0.9	0.85	1000	-1000	1000	0.1	0.01	0	0	1;
	5957	0.0	0.0	1.00	312.0900	156.0450	112.3524	0.9	0.85	1000	-1000	1000	0.1	0.01	0	0	1;
	7770	0.0	0.0	1.00	311.8500	155.9250	112.2660	0.9	0.85	1000	-1000	1000	0.1	0.01	0	0	1;
	2654	0.0	0.0	1.00	310.6500	155.3250	111.8340	0.9	0.85	1000	-1000	1000	0.1	0.01	0	0	1;
	8808	0.0	0.0	1.00	305.4000	152.7000	109.9440	0.9	0.85	1000	-1000	1000	0.1	0.01	0	0	1;
	2629	0.0	0.0	1.00	304.6500	152.3250	109.6740	0.9	0.85	1000	-1000	1000	0.1	0.01	0	0	1;
	1026	0.0	0.0	1.00	302.1000	151.0500	108.7560	0.9	0.85	1000	-1000	1000	0.1	0.01	0	0	1;
	3866	0.0	0.0	1.00	301.5900	150.7950	108.5724	0.9	0.85	1000	-1000	1000	0.1	0.01	0	0	1;
	4189	0.0	0.0	1.00	300.9750	150.4875	108.3510	0.9	0.85	1000	-1000	1000	0.1	0.01	0	0	1;
	2089	0.0	0.0	1.00	299.7900	149.8950	107.9244	0.9	0.85	1000	-1000	1000	0.1	0.01	0	0	1;
	1183	0.0	0.0	1.00	299.1000	149.5500	107.6760	0.9	0.85	1000	-1000	1000	0.1	0.01	0	0	1;
	3793	0.0	0.0	1.00	296.5500	148.2750	106.7580	0.9	0.85	1000	-1000	1000	0.1	0.01	0	0	1;
	7464	0.0	0.0	1.00	296.4750	148.2375	106.7310	0.9	0.85	1000	-1000	1000	0.1	0.01	0	0	1;
	346	0.0	0.0	1.00	296.2500	148.1250	106.6500	0.9	0.85	1000	-1000	1000	0.1	0.01	0	0	1;
	1917	0.0	0.0	1.00	296.2500	148.1250	106.6500	0.9	0.85	1000	-1000	1000	0.1	0.01	0	0	1;
	1398	0.0	0.0	1.00	295.0500	147.5250	106.2180	0.9	0.85	1000	-1000	1000	0.1	0.01	0	0	1;
	8250	0.0	0.0	1.00	294.1500	147.0750	105.8940	0.9	0.85	1000	-1000	1000	0.1	0.01	0	0	1;
	4710	0.0	0.0	1.00	293.1000	146.5500	105.5160	0.9	0.85	1000	-1000	1000	0.1	0.01	0	0	1;
	5691	0.0	0.0	1.00	292.6500	146.3250	105.3540	0.9	0.85	1000	-1000	1000	0.1	0.01	0	0	1;
	883	0.0	0.0	1.00	288.7500	144.3750	103.9500	0.9	0.85	1000	-1000	1000	0.1	0.01	0	0	1;
	1923	0.0	0.0	1.00	288.1650	144.0825	103.7394	0.9	0.85	1000	-1000	1000	0.1	0.01	0	0	1;
	4239	0.0	0.0	1.00	286.0500	143.0250	102.9780	0.9	0.85	1000	-1000	1000	0.1	0.01	0	0	1;
	1129	0.0	0.0	1.00	285.7050	142.8525	102.8538	0.9	0.85	1000	-1000	1000	0.1	0.01	0	0	1;
	5907	0.0	0.0	1.00	279.1500	139.5750	100.4940	0.9	0.85	1000	-1000	1000	0.1	0.01	0	0	1;
	3610	0.0	0.0	1.00	278.7000	139.3500	100.3320	0.9	0.85	1000	-1000	1000	0.1	0.01	0	0	1;
	3166	0.0	0.0	1.00	277.3650	138.6825	99.8514	0.9	0.85	1000	-1000	1000	0.1	0.01	0	0	1;
	4951	0.0	0.0	1.00	275.9250	137.9625	99.3330	0.9	0.85	1000	-1000	1000	0.1	0.01	0	0	1;
	5712	0.0	0.0	1.00	274.6050	137.3025	98.8578	0.9	0.85	1000	-1000	1000	0.1	0.01	0	0	1;
	6952	0.0	0.0	1.00	271.3500	135.6750	97.6860	0.9	0.85	1000	-1000	1000	0.1	0.01	0	0	1;
	8704	0.0	0.0	1.00	271.0500	135.5250	97.5780	0.9	0.85	1000	-1000	1000	0.1	0.01	0	0	1;
	3499	0.0	0.0	1.00	270.6000	135.3000	97.4160	0.9	0.85	1000	-1000	1000	0.1	0.01	0	0	1;
	5179	0.0	0.0	1.00	269.7000	134.8500	97.0920	0.9	0.85	1000	-1000	1000	0.1	0.01	0	0	1;
	3718	0.0	0.0	1.00	269.1000	134.5500	96.8760	0.9	0.85	1000	-1000	1000	0.1	0.01	0	0	1;
	1980	0.0	0.0	1.00	265.9500	132.9750	95.7420	0.9	0.85	1000	-1000	1000	0.1	0.01	0	0	1;
	6897	0.0	0.0	1.00	265.2000	132.6000	95.4720	0.9	0.85	1000	-1000	1000	0.1	0.01	0	0	1;
	8568	0.0	0.0	1.00	263.5500	131.7750	94.8780	0.9	0.85	1000	-1000	1000	0.1	0.01	0	0	1;
	1265	0.0	0.0	1.00	259.5000	129.7500	93.4200	0.9	0.85	1000	-1000	1000	0.1	0.01	0	0	1;
	4829	0.0	0.0	1.00	257.8500	128.9250	92.8260	0.9	0.85	1000	-1000	1000	0.1	0.01	0	0	1;
	4	0.0	0.0	1.00	257.1150	128.5575	92.5614	0.9	0.85	1000	-1000	1000	0.1	0.01	0	0	1;
	4005	0.0	0.0	1.00	256.7700	128.3850	92.4372	0.9	0.85	1000	-1000	1000	0.1	0.01	0	0	1;
	2288	0.0	0.0	1.00	256.3500	128.1750	92.2860	0.9	0.85	1000	-1000	1000	0.1	0.01	0	0	1;
	410	0.0	0.0	1.00	256.3350	128.1675	92.2806	0.9	0.85	1000	-1000	1000	0.1	0.01	0	0	1;
	4504	0.0	0.0	1.00	255.1500	127.5750	91.8540	0.9	0.85	1000	-1000	1000	0.1	0.01	0	0	1;
	7809	0.0	0.0	1.00	254.2500	127.1250	91.5300	0.9	0.85	1000	-1000	1000	0.1	0.01	0	0	1;
	7342	0.0	0.0	1.00	253.5000	126.7500	91.2600	0.9	0.85	1000	-1000	1000	0.1	0.01	0	0	1;
	26	0.0	0.0	1.00	250.9500	125.4750	90.3420	0.9	0.85	1000	-1000	1000	0.1	0.01	0	0	1;
];

%% branch data
%	fbus	tbus	r	x	b	rateA	rateB	rateC	ratio	angle	status	angmin	angmax
mpc.branch = [
	7351	 5441	 0.00018	 0.000781	 0.0	 39412	 39412	 39412	 0.0	 0.0	 1	 -30.0	 30.0;
	4314	 7571	 0.002961	 0.01669	 0.0	 319.0	 1864	 1864	 0.0	 0.0	 1	 -30.0	 30.0;
	5803	 3916	 0.00056	 0.00432	 0.0	 7252	 7252	 7252	 0.0	 0.0	 1	 -30.0	 30.0;
	6757	 6036	 0.0002	 0.00246	 0.0	 657.0	 12799	 12799	 0.0	 0.0	 1	 -30.0	 30.0;
	6757	 6921	 0.0003	 0.00377	 0.0	 1315.0	 8353	 8353	 0.0	 0.0	 1	 -30.0	 30.0;
	5019	 9112	 0.00014	 0.00057	 0.0	 53817	 53817	 53817	 0.0	 0.0	 1	 -30.0	 30.0;
	2930	 9112	 0.00013	 0.000729	 0.0	 42657	 42657	 42657	 0.0	 0.0	 1	 -30.0	 30.0;
	1436	 9112	 0.00012	 0.000581	 0.0	 53244	 53244	 53244	 0.0	 0.0	 1	 -30.0	 30.0;
	1851	 9112	 0.00011	 0.00064	 0.0	 48642	 48642	 48642	 0.0	 0.0	 1	 -30.0	 30.0;
	8331	 9112	 0.00019	 0.00056	 0.0	 53416	 53416	 53416	 0.0	 0.0	 1	 -30.0	 30.0;
	6220	 8791	 0.00062	 0.004909	 0.0	 529.0	 6384	 6384	 0.0	 0.0	 1	 -30.0	 30.0;
	9203	 7842	 7e-05	 0.00076	 0.0	 887.0	 41388	 41388	 0.0	 0.0	 1	 -30.0	 30.0;
	9203	 8997	 0.00066	 0.00622	 0.0	 1611.0	 5051	 5051	 0.0	 0.0	 1	 -30.0	 30.0;
	9203	 2129	 0.00054	 0.00752	 0.0	 4190	 4190	 4190	 0.0	 0.0	 1	 -30.0	 30.0;
	9203	 29	 0.00105	 0.00877	 0.0	 1315.0	 3577	 3577	 0.0	 0.0	 1	 -30.0	 30.0;
	118	 8903	 8e-05	 0.00091	 0.0	 657.0	 34578	 34578	 0.0	 0.0	 1	 -30.0	 30.0;
	118	 4598	 0.00056	 0.00719	 0.0	 953.0	 4380	 4380	 0.0	 0.0	 1	 -30.0	 30.0;
	2426	 5533	 0.000531	 0.002039	 0.0	 319.0	 14992	 14992	 0.0	 0.0	 1	 -30.0	 30.0;
	2426	 4831	 0.008659	 0.03769	 0.0	 300.0	 817	 817	 0.0	 0.0	 1	 -30.0	 30.0;
	2426	 8961	 0.003849	 0.021099	 0.0	 1473	 1473	 1473	 0.0	 0.0	 1	 -30.0	 30.0;
	2426	 8522	 0.00688	 0.035969	 0.0	 300.0	 863	 863	 0.0	 0.0	 1	 -30.0	 30.0;
	2426	 6888	 0.006729	 0.03713	 0.0	 838	 838	 838	 0.0	 0.0	 1	 -30.0	 30.0;
	2426	 3401	 0.00111	 0.006651	 0.0	 414.0	 4685	 4685	 0.0	 0.0	 1	 -30.0	 30.0;
	2426	 641	 0.0023	 0.008909	 0.0	 3433	 3433	 3433	 0.0	 0.0	 1	 -30.0	 30.0;
	2426	 2600	 0.000841	 0.00313	 0.0	 9747	 9747	 9747	 0.0	 0.0	 1	 -30.0	 30.0;
	2426	 5351	 0.003521	 0.017479	 0.0	 300.0	 1772	 1772	 0.0	 0.0	 1	 -30.0	 30.0;
	3051	 718	 3.9e-05	 0.00025	 0.0	 510.0	 124840	 124840	 0.0	 0.0	 1	 -30.0	 30.0;
	3036	 2327	 0.000159	 0.000729	 0.0	 357.0	 42335	 42335	 0.0	 0.0	 1	 -30.0	 30.0;
	8651	 7473	 0.005281	 0.032099	 0.0	 395.0	 972	 972	 0.0	 0.0	 1	 -30.0	 30.0;
	8651	 7473	 0.005651	 0.029419	 0.0	 376.0	 1055	 1055	 0.0	 0.0	 1	 -30.0	 30.0;
	903	 3654	 0.000271	 0.00036	 0.0	 70101	 70101	 70101	 0.0	 0.0	 1	 -30.0	 30.0;
	8732	 7050	 0.00044	 0.00143	 0.0	 472.0	 21113	 21113	 0.0	 0.0	 1	 -30.0	 30.0;
	8732	 3912	 0.000159	 0.00074	 0.0	 453.0	 41734	 41734	 0.0	 0.0	 1	 -30.0	 30.0;
	2273	 1973	 0.00019	 0.000591	 0.0	 338.0	 50883	 50883	 0.0	 0.0	 1	 -30.0	 30.0;
	5131	 2928	 0.00019	 0.00087	 0.0	 35472	 35472	 35472	 0.0	 0.0	 1	 -30.0	 30.0;
	6629	 4918	 0.002591	 0.013659	 0.0	 319.0	 2273	 2273	 0.0	 0.0	 1	 -30.0	 30.0;
	6629	 7309	 0.00305	 0.01168	 0.0	 2617	 2617	 2617	 0.0	 0.0	 1	 -30.0	 30.0;
	413	 1102	 0.000159	 0.000599	 0.0	 433.0	 50969	 50969	 0.0	 0.0	 1	 -30.0	 30.0;
	413	 1102	 0.000159	 0.00062	 0.0	 395.0	 49351	 49351	 0.0	 0.0	 1	 -30.0	 30.0;
...